


ROOT
HETATM    1  C   LIG    1        1.610  -0.311   0.071  0.00  0.00    +0.220 C 
HETATM    2  N   LIG    1        2.796   0.321  -0.025  0.00  0.00    -0.322 N 
HETATM    3  H   LIG    1        3.670  -0.093   0.052  0.00  0.00    +0.148 HD
HETATM    4  C   LIG    1        2.549   1.666  -0.253  0.00  0.00    +0.085 C 
HETATM    5  C   LIG    1        1.232   1.839  -0.293  0.00  0.00    +0.093 C 
HETATM    6  N   LIG    1        0.633   0.602  -0.097  0.00  0.00    -0.278 N 
ENDROOT
BRANCH   6   7
HETATM    7  C   LIG    1       -0.744   0.350  -0.069  0.00  0.00    +0.036 A 
HETATM    8  C   LIG    1       -1.254  -0.797  -0.664  0.00  0.00    +0.023 A 
HETATM    9  C   LIG    1       -2.612  -1.043  -0.635  0.00  0.00    +0.002 A 
HETATM   10  C   LIG    1       -3.465  -0.149  -0.012  0.00  0.00    +0.000 A 
HETATM   11  C   LIG    1       -2.961   0.993   0.582  0.00  0.00    +0.002 A 
HETATM   12  C   LIG    1       -1.602   1.242   0.560  0.00  0.00    +0.023 A 
ENDBRANCH   6   7
BRANCH   1  13
HETATM   13  S   LIG    1        1.382  -1.985   0.350  0.00  0.00    -0.137 S 
HETATM   14  H   LIG    1        2.071  -2.629   0.468  0.00  0.00    +0.105 HD
ENDBRANCH   1  13
TORSDOF 2

