


ROOT
HETATM    1  C   LIG    1        0.521  -0.545  -0.456  0.00  0.00    +0.056 A 
HETATM    2  C   LIG    1       -0.009  -1.822  -0.576  0.00  0.00    +0.026 A 
HETATM    3  C   LIG    1       -1.369  -2.021  -0.438  0.00  0.00    +0.023 A 
HETATM    4  C   LIG    1       -2.204  -0.949  -0.179  0.00  0.00    +0.061 A 
HETATM    5 CL   LIG    1       -3.913  -1.203  -0.005  0.00  0.00    -0.082 Cl
HETATM    6  C   LIG    1       -1.679   0.327  -0.058  0.00  0.00    +0.079 A 
HETATM    7 CL   LIG    1       -2.730   1.670   0.267  0.00  0.00    -0.080 Cl
HETATM    8  C   LIG    1       -0.318   0.531  -0.190  0.00  0.00    +0.082 A 
HETATM    9 CL   LIG    1        0.341   2.130  -0.039  0.00  0.00    -0.080 Cl
ENDROOT
BRANCH   1  15
HETATM   10  C   LIG    1        2.811  -0.373   0.398  0.00  0.00    +0.220 C 
HETATM   11  N   LIG    1        4.024  -0.132  -0.137  0.00  0.00    -0.322 N 
HETATM   12  H   LIG    1        4.864  -0.100   0.347  0.00  0.00    +0.148 HD
HETATM   13  C   LIG    1        3.861   0.061  -1.501  0.00  0.00    +0.085 C 
HETATM   14  C   LIG    1        2.568  -0.062  -1.780  0.00  0.00    +0.093 C 
HETATM   15  N   LIG    1        1.900  -0.341  -0.596  0.00  0.00    -0.276 N 
BRANCH  10  16
HETATM   16  S   LIG    1        2.484  -0.676   2.051  0.00  0.00    -0.137 S 
HETATM   17  H   LIG    1        3.126  -0.699   2.751  0.00  0.00    +0.105 HD
ENDBRANCH  10  16
ENDBRANCH   1  15
TORSDOF 2

