


ROOT
HETATM    1  C   LIG    1        0.689  -0.330  -0.380  0.00  0.00    +0.057 A 
HETATM    2  C   LIG    1       -0.087  -1.481  -0.365  0.00  0.00    +0.046 A 
HETATM    3  C   LIG    1       -1.456  -1.389  -0.196  0.00  0.00    +0.063 A 
HETATM    4 CL   LIG    1       -2.427  -2.828  -0.177  0.00  0.00    -0.082 Cl
HETATM    5  C   LIG    1       -2.053  -0.149  -0.042  0.00  0.00    +0.079 A 
HETATM    6 CL   LIG    1       -3.773  -0.036   0.170  0.00  0.00    -0.080 Cl
HETATM    7  C   LIG    1       -1.282   1.001  -0.056  0.00  0.00    +0.081 A 
HETATM    8 CL   LIG    1       -2.034   2.553   0.139  0.00  0.00    -0.080 Cl
HETATM    9  C   LIG    1        0.089   0.912  -0.220  0.00  0.00    +0.082 A 
HETATM   10 CL   LIG    1        1.057   2.353  -0.237  0.00  0.00    -0.080 Cl
ENDROOT
BRANCH   1  16
HETATM   11  C   LIG    1        2.990  -0.539   0.433  0.00  0.00    +0.220 C 
HETATM   12  N   LIG    1        4.212  -0.599  -0.133  0.00  0.00    -0.322 N 
HETATM   13  H   LIG    1        5.055  -0.687   0.339  0.00  0.00    +0.148 HD
HETATM   14  C   LIG    1        4.053  -0.512  -1.507  0.00  0.00    +0.085 C 
HETATM   15  C   LIG    1        2.753  -0.402  -1.763  0.00  0.00    +0.093 C 
HETATM   16  N   LIG    1        2.077  -0.423  -0.551  0.00  0.00    -0.276 N 
BRANCH  11  17
HETATM   17  S   LIG    1        2.656  -0.605   2.111  0.00  0.00    -0.137 S 
HETATM   18  H   LIG    1        3.300  -0.687   2.805  0.00  0.00    +0.105 HD
ENDBRANCH  11  17
ENDBRANCH   1  16
TORSDOF 2

