


ROOT
HETATM    1  C   LIG    1       -4.555  -0.006  -0.252  0.00  0.00    +0.044 C 
HETATM    2  C   LIG    1       -3.063  -0.001  -0.041  0.00  0.00    -0.050 A 
HETATM    3  C   LIG    1       -2.381   1.199   0.040  0.00  0.00    +0.008 A 
HETATM    4  C   LIG    1       -1.013   1.206   0.234  0.00  0.00    -0.029 A 
HETATM    5  C   LIG    1       -0.271   2.514   0.322  0.00  0.00    +0.046 C 
HETATM    6  C   LIG    1       -0.323   0.006   0.349  0.00  0.00    +0.042 A 
HETATM    7  C   LIG    1       -1.011  -1.197   0.268  0.00  0.00    -0.029 A 
HETATM    8  C   LIG    1       -0.267  -2.502   0.391  0.00  0.00    +0.046 C 
HETATM    9  C   LIG    1       -2.379  -1.198   0.078  0.00  0.00    +0.008 A 
ENDROOT
BRANCH   6  10
HETATM   10  N   LIG    1        1.063   0.010   0.546  0.00  0.00    -0.277 N 
HETATM   11  C   LIG    1        1.712   0.027   1.772  0.00  0.00    +0.093 C 
HETATM   12  C   LIG    1        3.021   0.025   1.541  0.00  0.00    +0.085 C 
HETATM   13  N   LIG    1        3.212   0.006   0.168  0.00  0.00    -0.322 N 
HETATM   14  H   LIG    1        4.068   0.000  -0.288  0.00  0.00    +0.148 HD
HETATM   15  C   LIG    1        2.001  -0.008  -0.422  0.00  0.00    +0.220 C 
BRANCH  15  16
HETATM   16  S   LIG    1        1.705  -0.035  -2.108  0.00  0.00    -0.137 S 
HETATM   17  H   LIG    1        2.366  -0.048  -2.790  0.00  0.00    +0.105 HD
ENDBRANCH  15  16
ENDBRANCH   6  10
TORSDOF 2

