


ROOT
HETATM    1  C   LIG    1       -4.568  -0.264  -0.170  0.00  0.00    +0.044 C 
HETATM    2  C   LIG    1       -3.076  -0.055  -0.201  0.00  0.00    -0.050 A 
HETATM    3  C   LIG    1       -2.382  -0.215  -1.387  0.00  0.00    +0.005 A 
HETATM    4  C   LIG    1       -1.014  -0.025  -1.419  0.00  0.00    +0.024 A 
HETATM    5  C   LIG    1       -0.336   0.327  -0.259  0.00  0.00    +0.039 A 
HETATM    6  C   LIG    1       -1.036   0.486   0.930  0.00  0.00    -0.029 A 
HETATM    7  C   LIG    1       -0.304   0.867   2.191  0.00  0.00    +0.045 C 
HETATM    8  C   LIG    1       -2.404   0.300   0.954  0.00  0.00    +0.008 A 
ENDROOT
BRANCH   5   9
HETATM    9  N   LIG    1        1.051   0.520  -0.288  0.00  0.00    -0.278 N 
HETATM   10  C   LIG    1        1.701   1.719  -0.542  0.00  0.00    +0.093 C 
HETATM   11  C   LIG    1        3.010   1.495  -0.481  0.00  0.00    +0.085 C 
HETATM   12  N   LIG    1        3.199   0.153  -0.187  0.00  0.00    -0.322 N 
HETATM   13  H   LIG    1        4.055  -0.292  -0.082  0.00  0.00    +0.148 HD
HETATM   14  C   LIG    1        1.987  -0.423  -0.068  0.00  0.00    +0.220 C 
BRANCH  14  15
HETATM   15  S   LIG    1        1.689  -2.071   0.290  0.00  0.00    -0.137 S 
HETATM   16  H   LIG    1        2.349  -2.736   0.445  0.00  0.00    +0.105 HD
ENDBRANCH  14  15
ENDBRANCH   5   9
TORSDOF 2

