


ROOT
HETATM    1  C   LIG    1       -2.684  -0.152  -0.052  0.00  0.00    +0.124 A 
HETATM    2  C   LIG    1       -2.050  -1.334  -0.407  0.00  0.00    +0.047 A 
HETATM    3  C   LIG    1       -0.682  -1.357  -0.594  0.00  0.00    +0.031 A 
HETATM    4  C   LIG    1        0.062  -0.198  -0.427  0.00  0.00    +0.078 A 
HETATM    5  C   LIG    1       -0.573   0.989  -0.071  0.00  0.00    +0.145 A 
HETATM    6  C   LIG    1       -1.946   1.011   0.110  0.00  0.00    +0.093 A 
ENDROOT
BRANCH   4   7
HETATM    7  N   LIG    1        1.453  -0.222  -0.617  0.00  0.00    -0.275 N 
HETATM    8  C   LIG    1        2.116   0.013  -1.812  0.00  0.00    +0.093 C 
HETATM    9  C   LIG    1        3.421  -0.100  -1.584  0.00  0.00    +0.085 C 
HETATM   10  N   LIG    1        3.595  -0.407  -0.244  0.00  0.00    -0.322 N 
HETATM   11  H   LIG    1        4.444  -0.547   0.203  0.00  0.00    +0.148 HD
HETATM   12  C   LIG    1        2.377  -0.471   0.331  0.00  0.00    +0.220 C 
BRANCH  12  13
HETATM   13  S   LIG    1        2.060  -0.820   1.977  0.00  0.00    -0.137 S 
HETATM   14  H   LIG    1        2.712  -0.996   2.646  0.00  0.00    +0.105 HD
ENDBRANCH  12  13
ENDBRANCH   4   7
BRANCH   1  16
HETATM   15  C   LIG    1       -4.501  -1.460  -0.112  0.00  0.00    +0.277 C 
HETATM   16  O   LIG    1       -4.031  -0.132   0.130  0.00  0.00    -0.495 OA
ENDBRANCH   1  16
BRANCH   5  17
HETATM   17  O   LIG    1        0.153   2.127   0.093  0.00  0.00    -0.493 OA
HETATM   18  C   LIG    1       -0.769   3.158   0.451  0.00  0.00    +0.277 C 
ENDBRANCH   5  17
TORSDOF 4

