


ROOT
HETATM    1  C   LIG    1        2.006  -0.927   0.306  0.00  0.00    +0.220 C 
HETATM    2  N   LIG    1        3.121  -1.309  -0.347  0.00  0.00    -0.322 N 
HETATM    3  H   LIG    1        3.903  -1.720   0.054  0.00  0.00    +0.148 HD
HETATM    4  C   LIG    1        2.955  -1.014  -1.691  0.00  0.00    +0.085 C 
HETATM    5  C   LIG    1        1.755  -0.462  -1.843  0.00  0.00    +0.093 C 
HETATM    6  N   LIG    1        1.150  -0.407  -0.596  0.00  0.00    -0.276 N 
ENDROOT
BRANCH   6   7
HETATM    7  C   LIG    1       -0.125   0.105  -0.322  0.00  0.00    +0.056 A 
HETATM    8  C   LIG    1       -1.235  -0.728  -0.369  0.00  0.00    +0.045 A 
HETATM    9  C   LIG    1       -2.491  -0.219  -0.098  0.00  0.00    +0.043 A 
HETATM   10 CL   LIG    1       -3.879  -1.260  -0.157  0.00  0.00    -0.083 Cl
HETATM   11  C   LIG    1       -2.643   1.119   0.221  0.00  0.00    +0.021 A 
HETATM   12  C   LIG    1       -1.540   1.951   0.269  0.00  0.00    +0.023 A 
HETATM   13  C   LIG    1       -0.280   1.447   0.004  0.00  0.00    +0.062 A 
HETATM   14 CL   LIG    1        1.104   2.493   0.064  0.00  0.00    -0.082 Cl
ENDBRANCH   6   7
BRANCH   1  15
HETATM   15  S   LIG    1        1.722  -1.081   1.987  0.00  0.00    -0.137 S 
HETATM   16  H   LIG    1        2.325  -1.448   2.623  0.00  0.00    +0.105 HD
ENDBRANCH   1  15
TORSDOF 2

