


ROOT
HETATM    1  C   LIG    1       -2.325  -0.795  -0.186  0.00  0.00    +0.122 A 
HETATM    2  C   LIG    1       -2.737   0.501   0.089  0.00  0.00    +0.049 A 
HETATM    3  C   LIG    1       -1.812   1.527   0.134  0.00  0.00    +0.051 A 
HETATM    4  C   LIG    1       -0.471   1.264  -0.094  0.00  0.00    +0.142 A 
HETATM    5  C   LIG    1       -0.055  -0.036  -0.369  0.00  0.00    +0.081 A 
HETATM    6  C   LIG    1       -0.984  -1.065  -0.409  0.00  0.00    +0.072 A 
ENDROOT
BRANCH   5   7
HETATM    7  N   LIG    1        1.302  -0.305  -0.600  0.00  0.00    -0.275 N 
HETATM    8  C   LIG    1        1.941  -0.277  -1.831  0.00  0.00    +0.093 C 
HETATM    9  C   LIG    1        3.218  -0.587  -1.635  0.00  0.00    +0.085 C 
HETATM   10  N   LIG    1        3.400  -0.813  -0.280  0.00  0.00    -0.322 N 
HETATM   11  H   LIG    1        4.234  -1.056   0.151  0.00  0.00    +0.148 HD
HETATM   12  C   LIG    1        2.215  -0.630   0.336  0.00  0.00    +0.220 C 
BRANCH  12  13
HETATM   13  S   LIG    1        1.920  -0.792   2.015  0.00  0.00    -0.137 S 
HETATM   14  H   LIG    1        2.564  -1.021   2.675  0.00  0.00    +0.105 HD
ENDBRANCH  12  13
ENDBRANCH   5   7
BRANCH   1  16
HETATM   15  C   LIG    1       -4.512  -1.218   0.043  0.00  0.00    +0.277 C 
HETATM   16  O   LIG    1       -3.237  -1.803  -0.230  0.00  0.00    -0.495 OA
ENDBRANCH   1  16
BRANCH   4  17
HETATM   17  O   LIG    1        0.438   2.275  -0.049  0.00  0.00    -0.493 OA
HETATM   18  C   LIG    1       -0.287   3.470   0.251  0.00  0.00    +0.277 C 
ENDBRANCH   4  17
TORSDOF 4

