


ROOT
HETATM    1  C   LIG    1        1.771  -0.004   0.423  0.00  0.00    +0.220 C 
HETATM    2  N   LIG    1        2.956  -0.018  -0.219  0.00  0.00    -0.322 N 
HETATM    3  H   LIG    1        3.831  -0.021   0.200  0.00  0.00    +0.148 HD
HETATM    4  C   LIG    1        2.706  -0.028  -1.582  0.00  0.00    +0.085 C 
HETATM    5  C   LIG    1        1.388  -0.019  -1.757  0.00  0.00    +0.093 C 
HETATM    6  N   LIG    1        0.793  -0.010  -0.504  0.00  0.00    -0.275 N 
ENDROOT
BRANCH   6   7
HETATM    7  C   LIG    1       -0.585   0.000  -0.247  0.00  0.00    +0.073 A 
HETATM    8  C   LIG    1       -1.277  -1.197  -0.114  0.00  0.00    +0.064 A 
HETATM    9 CL   LIG    1       -0.436  -2.708  -0.265  0.00  0.00    -0.082 Cl
HETATM   10  C   LIG    1       -2.636  -1.184   0.140  0.00  0.00    +0.022 A 
HETATM   11  C   LIG    1       -3.306   0.020   0.262  0.00  0.00    +0.003 A 
HETATM   12  C   LIG    1       -2.621   1.213   0.129  0.00  0.00    +0.022 A 
HETATM   13  C   LIG    1       -1.261   1.207  -0.119  0.00  0.00    +0.064 A 
HETATM   14 CL   LIG    1       -0.401   2.706  -0.284  0.00  0.00    -0.082 Cl
ENDBRANCH   6   7
BRANCH   1  15
HETATM   15  S   LIG    1        1.548   0.012   2.120  0.00  0.00    -0.137 S 
HETATM   16  H   LIG    1        2.237   0.016   2.773  0.00  0.00    +0.105 HD
ENDBRANCH   1  15
TORSDOF 2

