


ROOT
HETATM    1  C   LIG    1        1.089  -0.370   0.657  0.00  0.00    +0.000 C 
HETATM    2  C   LIG    1        0.874  -0.518  -0.850  0.00  0.00    +0.000 C 
HETATM    3  C   LIG    1        0.320   0.907  -0.911  0.00  0.00    +0.000 C 
HETATM    4  C   LIG    1        0.536   1.055   0.596  0.00  0.00    +0.000 C 
HETATM    5  C   LIG    1       -0.874   0.518   0.850  0.00  0.00    +0.000 C 
HETATM    6  C   LIG    1       -1.090   0.370  -0.657  0.00  0.00    +0.000 C 
HETATM    7  C   LIG    1       -0.536  -1.055  -0.596  0.00  0.00    +0.000 C 
HETATM    8  C   LIG    1       -0.320  -0.907   0.911  0.00  0.00    +0.000 C 
ENDROOT
TORSDOF 0

