


ROOT
HETATM    1  C   LIG    1        3.666  -2.114   0.329  0.00  0.00    +0.044 C 
HETATM    2  C   LIG    1        2.698  -0.966   0.206  0.00  0.00    -0.049 A 
HETATM    3  C   LIG    1        3.154   0.286  -0.164  0.00  0.00    +0.005 A 
HETATM    4  C   LIG    1        2.269   1.342  -0.278  0.00  0.00    +0.022 A 
HETATM    5  C   LIG    1        0.925   1.149  -0.023  0.00  0.00    +0.062 A 
HETATM    6 CL   LIG    1       -0.186   2.476  -0.166  0.00  0.00    -0.082 Cl
HETATM    7  C   LIG    1        0.463  -0.108   0.349  0.00  0.00    +0.054 A 
HETATM    8  C   LIG    1        1.355  -1.167   0.457  0.00  0.00    +0.028 A 
ENDROOT
BRANCH   7   9
HETATM    9  N   LIG    1       -0.899  -0.307   0.609  0.00  0.00    -0.276 N 
HETATM   10  C   LIG    1       -1.523  -0.165   1.840  0.00  0.00    +0.093 C 
HETATM   11  C   LIG    1       -2.814  -0.440   1.677  0.00  0.00    +0.085 C 
HETATM   12  N   LIG    1       -3.017  -0.757   0.343  0.00  0.00    -0.322 N 
HETATM   13  H   LIG    1       -3.865  -1.000  -0.062  0.00  0.00    +0.148 HD
HETATM   14  C   LIG    1       -1.833  -0.664  -0.294  0.00  0.00    +0.220 C 
BRANCH  14  15
HETATM   15  S   LIG    1       -1.562  -0.959  -1.958  0.00  0.00    -0.137 S 
HETATM   16  H   LIG    1       -2.221  -1.211  -2.595  0.00  0.00    +0.105 HD
ENDBRANCH  14  15
ENDBRANCH   7   9
TORSDOF 2

