


ROOT
HETATM    1  C   LIG    1        1.736  -0.404   0.251  0.00  0.00    +0.220 C 
HETATM    2  N   LIG    1        2.918  -0.069  -0.301  0.00  0.00    -0.322 N 
HETATM    3  H   LIG    1        3.788  -0.150   0.121  0.00  0.00    +0.148 HD
HETATM    4  C   LIG    1        2.675   0.413  -1.578  0.00  0.00    +0.085 C 
HETATM    5  C   LIG    1        1.363   0.368  -1.789  0.00  0.00    +0.093 C 
HETATM    6  N   LIG    1        0.765  -0.149  -0.649  0.00  0.00    -0.276 N 
ENDROOT
BRANCH   6   7
HETATM    7  C   LIG    1       -0.607  -0.360  -0.462  0.00  0.00    +0.054 A 
HETATM    8  C   LIG    1       -1.178  -1.576  -0.814  0.00  0.00    +0.025 A 
HETATM    9  C   LIG    1       -2.531  -1.782  -0.628  0.00  0.00    +0.002 A 
HETATM   10  C   LIG    1       -3.318  -0.779  -0.093  0.00  0.00    +0.002 A 
HETATM   11  C   LIG    1       -2.753   0.433   0.259  0.00  0.00    +0.022 A 
HETATM   12  C   LIG    1       -1.399   0.644   0.082  0.00  0.00    +0.062 A 
HETATM   13 CL   LIG    1       -0.690   2.166   0.524  0.00  0.00    -0.082 Cl
ENDBRANCH   6   7
BRANCH   1  14
HETATM   14  S   LIG    1        1.507  -1.049   1.820  0.00  0.00    -0.137 S 
HETATM   15  H   LIG    1        2.191  -1.229   2.454  0.00  0.00    +0.105 HD
ENDBRANCH   1  14
TORSDOF 2

