


ROOT
HETATM    1  C   LIG    1        0.401   0.228  -0.310  0.00  0.00    +0.055 A 
HETATM    2  C   LIG    1       -0.804  -0.462  -0.332  0.00  0.00    +0.037 A 
HETATM    3  C   LIG    1       -1.984   0.201  -0.055  0.00  0.00    +0.057 A 
HETATM    4  C   LIG    1       -1.966   1.551   0.245  0.00  0.00    +0.014 A 
HETATM    5  C   LIG    1       -0.769   2.242   0.267  0.00  0.00    +0.022 A 
HETATM    6  C   LIG    1        0.416   1.583  -0.004  0.00  0.00    +0.062 A 
HETATM    7 CL   LIG    1        1.919   2.451   0.024  0.00  0.00    -0.082 Cl
ENDROOT
BRANCH   1  13
HETATM    8  C   LIG    1        2.396  -1.049   0.310  0.00  0.00    +0.220 C 
HETATM    9  N   LIG    1        3.447  -1.576  -0.348  0.00  0.00    -0.322 N 
HETATM   10  H   LIG    1        4.178  -2.074   0.051  0.00  0.00    +0.148 HD
HETATM   11  C   LIG    1        3.301  -1.283  -1.695  0.00  0.00    +0.085 C 
HETATM   12  C   LIG    1        2.177  -0.590  -1.843  0.00  0.00    +0.093 C 
HETATM   13  N   LIG    1        1.599  -0.442  -0.591  0.00  0.00    -0.276 N 
BRANCH   8  14
HETATM   14  S   LIG    1        2.118  -1.142   1.997  0.00  0.00    -0.137 S 
HETATM   15  H   LIG    1        2.680  -1.570   2.632  0.00  0.00    +0.105 HD
ENDBRANCH   8  14
ENDBRANCH   1  13
BRANCH   3  16
HETATM   16  C   LIG    1       -3.291  -0.548  -0.078  0.00  0.00    +0.417 C 
HETATM   17  F   LIG    1       -3.555  -1.065   1.194  0.00  0.00    -0.166 F 
HETATM   18  F   LIG    1       -4.321   0.323  -0.451  0.00  0.00    -0.166 F 
HETATM   19  F   LIG    1       -3.211  -1.597  -1.001  0.00  0.00    -0.166 F 
ENDBRANCH   3  16
TORSDOF 3

