


ROOT
HETATM    1  C   LIG    1        1.409  -0.500   0.496  0.00  0.00    -0.026 A 
HETATM    2  C   LIG    1        2.755  -0.211   0.604  0.00  0.00    +0.005 A 
HETATM    3  C   LIG    1        3.328   0.741  -0.219  0.00  0.00    +0.000 A 
HETATM    4  C   LIG    1        2.554   1.408  -1.152  0.00  0.00    +0.002 A 
HETATM    5  C   LIG    1        1.208   1.123  -1.265  0.00  0.00    +0.024 A 
HETATM    6  C   LIG    1        0.631   0.163  -0.444  0.00  0.00    +0.039 A 
ENDROOT
BRANCH   6   7
HETATM    7  N   LIG    1       -0.734  -0.128  -0.556  0.00  0.00    -0.278 N 
HETATM    8  C   LIG    1       -1.298  -1.088  -1.384  0.00  0.00    +0.093 C 
HETATM    9  C   LIG    1       -2.615  -1.060  -1.205  0.00  0.00    +0.085 C 
HETATM   10  N   LIG    1       -2.896  -0.083  -0.262  0.00  0.00    -0.322 N 
HETATM   11  H   LIG    1       -3.777   0.157   0.064  0.00  0.00    +0.148 HD
HETATM   12  C   LIG    1       -1.730   0.471   0.125  0.00  0.00    +0.220 C 
BRANCH  12  13
HETATM   13  S   LIG    1       -1.547   1.726   1.276  0.00  0.00    -0.137 S 
HETATM   14  H   LIG    1       -2.249   2.148   1.756  0.00  0.00    +0.105 HD
ENDBRANCH  12  13
ENDBRANCH   6   7
BRANCH   1  16
HETATM   15  C   LIG    1        0.759  -2.887   0.672  0.00  0.00    +0.009 C 
HETATM   16  C   LIG    1        0.786  -1.538   1.393  0.00  0.00    +0.033 C 
ENDBRANCH   1  16
TORSDOF 3

