


ROOT
HETATM    1  C   LIG    1       -0.964  -1.047   0.100  0.00  0.00    +0.141 A 
HETATM    2  C   LIG    1       -2.329  -1.098  -0.131  0.00  0.00    +0.048 A 
HETATM    3  C   LIG    1       -3.079   0.063  -0.107  0.00  0.00    +0.007 A 
HETATM    4  C   LIG    1       -2.470   1.278   0.148  0.00  0.00    -0.048 A 
HETATM    5  C   LIG    1       -3.293   2.540   0.173  0.00  0.00    +0.044 C 
HETATM    6  C   LIG    1       -1.109   1.338   0.381  0.00  0.00    +0.030 A 
HETATM    7  C   LIG    1       -0.351   0.176   0.363  0.00  0.00    +0.078 A 
ENDROOT
BRANCH   7   8
HETATM    8  N   LIG    1        1.030   0.235   0.599  0.00  0.00    -0.275 N 
HETATM    9  C   LIG    1        1.651   0.133   1.836  0.00  0.00    +0.093 C 
HETATM   10  C   LIG    1        2.962   0.235   1.644  0.00  0.00    +0.085 C 
HETATM   11  N   LIG    1        3.183   0.402   0.285  0.00  0.00    -0.322 N 
HETATM   12  H   LIG    1        4.047   0.504  -0.144  0.00  0.00    +0.148 HD
HETATM   13  C   LIG    1        1.987   0.393  -0.336  0.00  0.00    +0.220 C 
BRANCH  13  14
HETATM   14  S   LIG    1        1.728   0.565  -2.020  0.00  0.00    -0.137 S 
HETATM   15  H   LIG    1        2.403   0.676  -2.679  0.00  0.00    +0.105 HD
ENDBRANCH  13  14
ENDBRANCH   7   8
BRANCH   1  17
HETATM   16  C   LIG    1       -1.127  -3.258  -0.209  0.00  0.00    +0.277 C 
HETATM   17  O   LIG    1       -0.225  -2.188   0.077  0.00  0.00    -0.493 OA
ENDBRANCH   1  17
TORSDOF 3

