


ROOT
HETATM    1  C   LIG    1       -0.835   2.651  -0.161  0.00  0.00    +0.045 C 
HETATM    2  C   LIG    1        0.296   1.660  -0.069  0.00  0.00    -0.029 A 
HETATM    3  C   LIG    1        1.589   2.058  -0.350  0.00  0.00    +0.006 A 
HETATM    4  C   LIG    1        2.627   1.150  -0.266  0.00  0.00    +0.020 A 
HETATM    5  C   LIG    1        2.376  -0.161   0.100  0.00  0.00    +0.043 A 
HETATM    6 CL   LIG    1        3.684  -1.298   0.205  0.00  0.00    -0.083 Cl
HETATM    7  C   LIG    1        1.085  -0.565   0.383  0.00  0.00    +0.043 A 
HETATM    8  C   LIG    1        0.041   0.347   0.305  0.00  0.00    +0.040 A 
ENDROOT
BRANCH   8   9
HETATM    9  N   LIG    1       -1.268  -0.059   0.591  0.00  0.00    -0.277 N 
HETATM   10  C   LIG    1       -1.878  -0.026   1.838  0.00  0.00    +0.093 C 
HETATM   11  C   LIG    1       -3.115  -0.491   1.700  0.00  0.00    +0.085 C 
HETATM   12  N   LIG    1       -3.300  -0.822   0.366  0.00  0.00    -0.322 N 
HETATM   13  H   LIG    1       -4.111  -1.185  -0.024  0.00  0.00    +0.148 HD
HETATM   14  C   LIG    1       -2.159  -0.544  -0.296  0.00  0.00    +0.220 C 
BRANCH  14  15
HETATM   15  S   LIG    1       -1.886  -0.777  -1.969  0.00  0.00    -0.137 S 
HETATM   16  H   LIG    1       -2.514  -1.119  -2.594  0.00  0.00    +0.105 HD
ENDBRANCH  14  15
ENDBRANCH   8   9
TORSDOF 2

