


ROOT
HETATM    1  C   LIG    1        0.376   2.747   0.571  0.00  0.00    +0.046 C 
HETATM    2  C   LIG    1        1.200   1.514   0.305  0.00  0.00    -0.028 A 
HETATM    3  C   LIG    1        2.556   1.627   0.066  0.00  0.00    +0.005 A 
HETATM    4  C   LIG    1        3.314   0.497  -0.177  0.00  0.00    +0.002 A 
HETATM    5  C   LIG    1        2.718  -0.751  -0.183  0.00  0.00    +0.022 A 
HETATM    6  C   LIG    1        1.362  -0.872   0.054  0.00  0.00    +0.063 A 
HETATM    7 CL   LIG    1        0.614  -2.438   0.047  0.00  0.00    -0.082 Cl
HETATM    8  C   LIG    1        0.599   0.263   0.305  0.00  0.00    +0.057 A 
ENDROOT
BRANCH   8   9
HETATM    9  N   LIG    1       -0.776   0.144   0.547  0.00  0.00    -0.276 N 
HETATM   10  C   LIG    1       -1.373  -0.031   1.787  0.00  0.00    +0.093 C 
HETATM   11  C   LIG    1       -2.688  -0.098   1.601  0.00  0.00    +0.085 C 
HETATM   12  N   LIG    1       -2.934   0.033   0.243  0.00  0.00    -0.322 N 
HETATM   13  H   LIG    1       -3.806   0.022  -0.182  0.00  0.00    +0.148 HD
HETATM   14  C   LIG    1       -1.750   0.187  -0.383  0.00  0.00    +0.220 C 
BRANCH  14  15
HETATM   15  S   LIG    1       -1.523   0.388  -2.068  0.00  0.00    -0.137 S 
HETATM   16  H   LIG    1       -2.210   0.418  -2.724  0.00  0.00    +0.105 HD
ENDBRANCH  14  15
ENDBRANCH   8   9
TORSDOF 2

