ROOT
HETATM    1  C   LIG    1        0.296  -1.417  -0.109  0.00  0.00    +0.141 A 
HETATM    2  C   LIG    1        1.592  -1.842   0.132  0.00  0.00    +0.049 A 
HETATM    3  C   LIG    1        2.629  -0.929   0.139  0.00  0.00    +0.024 A 
HETATM    4  C   LIG    1        2.377   0.412  -0.093  0.00  0.00    +0.043 A 
HETATM    5 CL   LIG    1        3.685   1.554  -0.081  0.00  0.00    -0.083 Cl
HETATM    6  C   LIG    1        1.086   0.844  -0.334  0.00  0.00    +0.047 A 
HETATM    7  C   LIG    1        0.041  -0.069  -0.349  0.00  0.00    +0.079 A 
ENDROOT
BRANCH   7   8
HETATM    8  N   LIG    1       -1.269   0.366  -0.594  0.00  0.00    -0.275 N 
HETATM    9  C   LIG    1       -1.877   0.462  -1.838  0.00  0.00    +0.093 C 
HETATM   10  C   LIG    1       -3.114   0.912  -1.654  0.00  0.00    +0.085 C 
HETATM   11  N   LIG    1       -3.300   1.106  -0.293  0.00  0.00    -0.322 N 
HETATM   12  H   LIG    1       -4.110   1.429   0.131  0.00  0.00    +0.148 HD
HETATM   13  C   LIG    1       -2.160   0.760   0.337  0.00  0.00    +0.220 C 
BRANCH  13  14
HETATM   14  S   LIG    1       -1.888   0.821   2.026  0.00  0.00    -0.137 S 
HETATM   15  H   LIG    1       -2.516   1.099   2.682  0.00  0.00    +0.105 HD
ENDBRANCH  13  14
ENDBRANCH   7   8
BRANCH   1  17
HETATM   16  C   LIG    1       -0.152  -3.596   0.151  0.00  0.00    +0.277 C 
HETATM   17  O   LIG    1       -0.726  -2.315  -0.117  0.00  0.00    -0.493 OA
ENDBRANCH   1  17
TORSDOF 3

