


ROOT
HETATM    1  C   LIG    1       -0.188   0.875  -2.208  0.00  0.00    +0.046 C 
HETATM    2  C   LIG    1        0.567   0.519  -0.953  0.00  0.00    -0.028 A 
HETATM    3  C   LIG    1        1.938   0.359  -0.994  0.00  0.00    +0.025 A 
HETATM    4  C   LIG    1        2.632   0.032   0.158  0.00  0.00    +0.041 A 
HETATM    5 CL   LIG    1        4.356  -0.169   0.104  0.00  0.00    -0.084 Cl
HETATM    6  C   LIG    1        1.954  -0.136   1.353  0.00  0.00    +0.022 A 
HETATM    7  C   LIG    1        0.583   0.023   1.399  0.00  0.00    +0.025 A 
HETATM    8  C   LIG    1       -0.115   0.356   0.245  0.00  0.00    +0.039 A 
ENDROOT
BRANCH   8   9
HETATM    9  N   LIG    1       -1.506   0.518   0.289  0.00  0.00    -0.278 N 
HETATM   10  C   LIG    1       -2.181   1.703   0.548  0.00  0.00    +0.093 C 
HETATM   11  C   LIG    1       -3.484   1.448   0.501  0.00  0.00    +0.085 C 
HETATM   12  N   LIG    1       -3.646   0.102   0.212  0.00  0.00    -0.322 N 
HETATM   13  H   LIG    1       -4.492  -0.363   0.116  0.00  0.00    +0.148 HD
HETATM   14  C   LIG    1       -2.422  -0.447   0.081  0.00  0.00    +0.220 C 
BRANCH  14  15
HETATM   15  S   LIG    1       -2.090  -2.088  -0.277  0.00  0.00    -0.137 S 
HETATM   16  H   LIG    1       -2.736  -2.769  -0.424  0.00  0.00    +0.105 HD
ENDBRANCH  14  15
ENDBRANCH   8   9
TORSDOF 2

