


ROOT
HETATM    1  C   LIG    1       -0.303  -0.901   0.139  0.00  0.00    +0.144 A 
HETATM    2  C   LIG    1       -1.679  -0.842  -0.015  0.00  0.00    +0.080 A 
HETATM    3  C   LIG    1       -2.342   0.360   0.142  0.00  0.00    +0.130 A 
HETATM    4  C   LIG    1       -1.637   1.515   0.456  0.00  0.00    +0.035 A 
HETATM    5  C   LIG    1       -0.270   1.474   0.613  0.00  0.00    +0.029 A 
HETATM    6  C   LIG    1        0.412   0.264   0.462  0.00  0.00    +0.078 A 
ENDROOT
BRANCH   6   7
HETATM    7  N   LIG    1        1.783   0.216   0.618  0.00  0.00    -0.275 N 
HETATM    8  C   LIG    1        2.428  -0.014   1.759  0.00  0.00    +0.093 C 
HETATM    9  C   LIG    1        3.808   0.024   1.471  0.00  0.00    +0.085 C 
HETATM   10  N   LIG    1        3.928   0.277   0.164  0.00  0.00    -0.322 N 
HETATM   11  H   LIG    1        4.762   0.360  -0.324  0.00  0.00    +0.148 HD
HETATM   12  C   LIG    1        2.692   0.389  -0.358  0.00  0.00    +0.220 C 
BRANCH  12  13
HETATM   13  S   LIG    1        2.336   0.711  -2.001  0.00  0.00    -0.137 S 
HETATM   14  H   LIG    1        2.978   0.833  -2.690  0.00  0.00    +0.105 HD
ENDBRANCH  12  13
ENDBRANCH   6   7
BRANCH   3  15
HETATM   15  N   LIG    1       -3.812   0.418  -0.024  0.00  0.00    +0.057 N 
HETATM   16  O   LIG    1       -4.433  -0.593  -0.298  0.00  0.00    -0.126 OA
HETATM   17  O   LIG    1       -4.399   1.475   0.114  0.00  0.00    -0.126 OA
ENDBRANCH   3  15
BRANCH   1  19
HETATM   18  C   LIG    1       -0.640  -3.063  -0.328  0.00  0.00    +0.277 C 
HETATM   19  O   LIG    1        0.350  -2.081  -0.014  0.00  0.00    -0.493 OA
ENDBRANCH   1  19
TORSDOF 4

