


ROOT
HETATM    1  C   LIG    1        2.949  -0.220   0.156  0.00  0.00    +0.220 C 
HETATM    2  N   LIG    1        4.069   0.512  -0.002  0.00  0.00    -0.322 N 
HETATM    3  H   LIG    1        4.971   0.225   0.209  0.00  0.00    +0.148 HD
HETATM    4  C   LIG    1        3.707   1.747  -0.518  0.00  0.00    +0.085 C 
HETATM    5  C   LIG    1        2.386   1.756  -0.668  0.00  0.00    +0.093 C 
HETATM    6  N   LIG    1        1.902   0.523  -0.253  0.00  0.00    -0.278 N 
ENDROOT
BRANCH   6   7
HETATM    7  C   LIG    1        0.559   0.125  -0.251  0.00  0.00    +0.037 A 
HETATM    8  C   LIG    1        0.216  -1.168  -0.624  0.00  0.00    +0.025 A 
HETATM    9  C   LIG    1       -1.108  -1.559  -0.621  0.00  0.00    +0.023 A 
HETATM   10  C   LIG    1       -2.095  -0.664  -0.247  0.00  0.00    +0.059 A 
HETATM   11 CL   LIG    1       -3.759  -1.159  -0.244  0.00  0.00    -0.082 Cl
HETATM   12  C   LIG    1       -1.757   0.626   0.125  0.00  0.00    +0.061 A 
HETATM   13 CL   LIG    1       -2.997   1.747   0.595  0.00  0.00    -0.082 Cl
HETATM   14  C   LIG    1       -0.432   1.021   0.129  0.00  0.00    +0.045 A 
ENDBRANCH   6   7
BRANCH   1  15
HETATM   15  S   LIG    1        2.870  -1.819   0.762  0.00  0.00    -0.137 S 
HETATM   16  H   LIG    1        3.608  -2.343   1.050  0.00  0.00    +0.105 HD
ENDBRANCH   1  15
TORSDOF 2

