


ROOT
HETATM    1  C   LIG    1       -2.474  -0.391   0.069  0.00  0.00    +0.162 A 
HETATM    2  C   LIG    1       -1.864  -1.608   0.325  0.00  0.00    +0.051 A 
HETATM    3  C   LIG    1       -0.489  -1.726   0.239  0.00  0.00    +0.027 A 
HETATM    4  C   LIG    1        0.283  -0.624  -0.104  0.00  0.00    +0.040 A 
HETATM    5  C   LIG    1       -0.325   0.597  -0.362  0.00  0.00    +0.073 A 
HETATM    6  C   LIG    1       -1.703   0.713  -0.281  0.00  0.00    +0.163 A 
ENDROOT
BRANCH   4   7
HETATM    7  N   LIG    1        1.677  -0.745  -0.192  0.00  0.00    -0.278 N 
HETATM    8  C   LIG    1        2.370  -1.822  -0.725  0.00  0.00    +0.093 C 
HETATM    9  C   LIG    1        3.670  -1.561  -0.626  0.00  0.00    +0.085 C 
HETATM   10  N   LIG    1        3.811  -0.318  -0.030  0.00  0.00    -0.322 N 
HETATM   11  H   LIG    1        4.649   0.128   0.167  0.00  0.00    +0.148 HD
HETATM   12  C   LIG    1        2.579   0.167   0.223  0.00  0.00    +0.220 C 
BRANCH  12  13
HETATM   13  S   LIG    1        2.221   1.674   0.952  0.00  0.00    -0.137 S 
HETATM   14  H   LIG    1        2.857   2.317   1.244  0.00  0.00    +0.105 HD
ENDBRANCH  12  13
ENDBRANCH   4   7
BRANCH   1  16
HETATM   15  C   LIG    1       -4.328  -1.564   0.521  0.00  0.00    +0.277 C 
HETATM   16  O   LIG    1       -3.827  -0.277   0.154  0.00  0.00    -0.491 OA
ENDBRANCH   1  16
BRANCH   6  17
HETATM   17  O   LIG    1       -2.301   1.909  -0.534  0.00  0.00    -0.491 OA
HETATM   18  C   LIG    1       -1.258   2.834  -0.849  0.00  0.00    +0.277 C 
ENDBRANCH   6  17
TORSDOF 4

