


ROOT
HETATM    1  C   LIG    1       -1.890  -1.212  -0.226  0.00  0.00    +0.125 A 
HETATM    2  C   LIG    1       -2.409   0.048   0.034  0.00  0.00    +0.091 A 
HETATM    3  C   LIG    1       -1.560   1.093   0.365  0.00  0.00    +0.125 A 
HETATM    4  C   LIG    1       -0.191   0.879   0.436  0.00  0.00    +0.069 A 
HETATM    5  C   LIG    1        0.328  -0.381   0.176  0.00  0.00    +0.043 A 
HETATM    6  C   LIG    1       -0.523  -1.428  -0.150  0.00  0.00    +0.069 A 
ENDROOT
BRANCH   5   7
HETATM    7  N   LIG    1        1.710  -0.598   0.248  0.00  0.00    -0.278 N 
HETATM    8  C   LIG    1        2.333  -1.722   0.771  0.00  0.00    +0.093 C 
HETATM    9  C   LIG    1        3.646  -1.550   0.659  0.00  0.00    +0.085 C 
HETATM   10  N   LIG    1        3.866  -0.317   0.064  0.00  0.00    -0.322 N 
HETATM   11  H   LIG    1        4.731   0.070  -0.141  0.00  0.00    +0.148 HD
HETATM   12  C   LIG    1        2.668   0.246  -0.184  0.00  0.00    +0.220 C 
BRANCH  12  13
HETATM   13  S   LIG    1        2.407   1.774  -0.912  0.00  0.00    -0.137 S 
HETATM   14  H   LIG    1        3.082   2.369  -1.216  0.00  0.00    +0.105 HD
ENDBRANCH  12  13
ENDBRANCH   5   7
BRANCH   1  16
HETATM   15  C   LIG    1       -4.050  -1.708  -0.541  0.00  0.00    +0.277 C 
HETATM   16  O   LIG    1       -2.723  -2.236  -0.550  0.00  0.00    -0.495 OA
ENDBRANCH   1  16
BRANCH   3  17
HETATM   17  O   LIG    1       -2.069   2.327   0.620  0.00  0.00    -0.495 OA
HETATM   18  C   LIG    1       -3.486   2.228   0.469  0.00  0.00    +0.277 C 
ENDBRANCH   3  17
TORSDOF 4

