


ROOT
HETATM    1  C   LIG    1        2.363   0.013   0.180  0.00  0.00    +0.220 C 
HETATM    2  N   LIG    1        3.334   0.944   0.104  0.00  0.00    -0.322 N 
HETATM    3  H   LIG    1        4.268   0.814   0.333  0.00  0.00    +0.148 HD
HETATM    4  C   LIG    1        2.765   2.122  -0.356  0.00  0.00    +0.085 C 
HETATM    5  C   LIG    1        1.470   1.900  -0.555  0.00  0.00    +0.093 C 
HETATM    6  N   LIG    1        1.209   0.577  -0.226  0.00  0.00    -0.278 N 
ENDROOT
BRANCH   6   7
HETATM    7  C   LIG    1       -0.038  -0.057  -0.296  0.00  0.00    +0.037 A 
HETATM    8  C   LIG    1       -0.128  -1.366  -0.751  0.00  0.00    +0.023 A 
HETATM    9  C   LIG    1       -1.358  -1.990  -0.819  0.00  0.00    +0.003 A 
HETATM   10  C   LIG    1       -2.501  -1.312  -0.434  0.00  0.00    +0.020 A 
HETATM   11  C   LIG    1       -2.415  -0.008   0.020  0.00  0.00    +0.043 A 
HETATM   12 CL   LIG    1       -3.852   0.839   0.502  0.00  0.00    -0.083 Cl
HETATM   13  C   LIG    1       -1.185   0.619   0.096  0.00  0.00    +0.043 A 
ENDBRANCH   6   7
BRANCH   1  14
HETATM   14  S   LIG    1        2.563  -1.607   0.696  0.00  0.00    -0.137 S 
HETATM   15  H   LIG    1        3.377  -2.005   0.982  0.00  0.00    +0.105 HD
ENDBRANCH   1  14
TORSDOF 2

