


ROOT
HETATM    1  C   LIG    1       -2.208   0.200  -0.225  0.00  0.00    +0.122 A 
HETATM    2  C   LIG    1       -2.734  -0.954   0.339  0.00  0.00    +0.046 A 
HETATM    3  C   LIG    1       -1.893  -1.973   0.743  0.00  0.00    +0.005 A 
HETATM    4  C   LIG    1       -0.526  -1.846   0.587  0.00  0.00    +0.024 A 
HETATM    5  C   LIG    1        0.006  -0.693   0.024  0.00  0.00    +0.039 A 
HETATM    6  C   LIG    1       -0.838   0.329  -0.387  0.00  0.00    +0.069 A 
ENDROOT
BRANCH   5   7
HETATM    7  N   LIG    1        1.392  -0.565  -0.134  0.00  0.00    -0.278 N 
HETATM    8  C   LIG    1        2.264  -1.568  -0.534  0.00  0.00    +0.093 C 
HETATM    9  C   LIG    1        3.489  -1.055  -0.563  0.00  0.00    +0.085 C 
HETATM   10  N   LIG    1        3.405   0.275  -0.182  0.00  0.00    -0.322 N 
HETATM   11  H   LIG    1        4.147   0.896  -0.113  0.00  0.00    +0.148 HD
HETATM   12  C   LIG    1        2.112   0.556   0.072  0.00  0.00    +0.220 C 
BRANCH  12  13
HETATM   13  S   LIG    1        1.492   2.070   0.577  0.00  0.00    -0.137 S 
HETATM   14  H   LIG    1        1.999   2.860   0.722  0.00  0.00    +0.105 HD
ENDBRANCH  12  13
ENDBRANCH   5   7
BRANCH   1  16
HETATM   15  C   LIG    1       -4.369   0.774  -0.332  0.00  0.00    +0.277 C 
HETATM   16  O   LIG    1       -3.037   1.201  -0.622  0.00  0.00    -0.495 OA
ENDBRANCH   1  16
TORSDOF 3

