


ROOT
HETATM    1  C   LIG    1        0.773   0.437  -0.074  0.00  0.00    +0.036 A 
HETATM    2  C   LIG    1        0.190  -0.673  -0.672  0.00  0.00    +0.024 A 
HETATM    3  C   LIG    1       -1.182  -0.829  -0.646  0.00  0.00    +0.014 A 
HETATM    4  C   LIG    1       -1.975   0.119  -0.026  0.00  0.00    +0.055 A 
HETATM    5  C   LIG    1       -1.398   1.225   0.570  0.00  0.00    +0.014 A 
HETATM    6  C   LIG    1       -0.026   1.384   0.553  0.00  0.00    +0.024 A 
ENDROOT
BRANCH   1  12
HETATM    7  C   LIG    1        3.077  -0.378   0.072  0.00  0.00    +0.220 C 
HETATM    8  N   LIG    1        4.303   0.174  -0.020  0.00  0.00    -0.322 N 
HETATM    9  H   LIG    1        5.147  -0.297   0.059  0.00  0.00    +0.148 HD
HETATM   10  C   LIG    1        4.146   1.532  -0.248  0.00  0.00    +0.085 C 
HETATM   11  C   LIG    1        2.844   1.792  -0.292  0.00  0.00    +0.093 C 
HETATM   12  N   LIG    1        2.164   0.598  -0.098  0.00  0.00    -0.278 N 
BRANCH   7  13
HETATM   13  S   LIG    1        2.739  -2.033   0.350  0.00  0.00    -0.137 S 
HETATM   14  H   LIG    1        3.383  -2.721   0.470  0.00  0.00    +0.105 HD
ENDBRANCH   7  13
ENDBRANCH   1  12
BRANCH   4  15
HETATM   15  C   LIG    1       -3.472  -0.055   0.001  0.00  0.00    +0.417 C 
HETATM   16  F   LIG    1       -3.838  -0.771   1.146  0.00  0.00    -0.166 F 
HETATM   17  F   LIG    1       -4.087   1.201   0.021  0.00  0.00    -0.166 F 
HETATM   18  F   LIG    1       -3.880  -0.757  -1.138  0.00  0.00    -0.166 F 
ENDBRANCH   4  15
TORSDOF 3

