


ROOT
HETATM    1  C   LIG    1        3.896  -0.399   0.074  0.00  0.00    +0.220 C 
HETATM    2  N   LIG    1        5.128   0.137  -0.016  0.00  0.00    -0.322 N 
HETATM    3  H   LIG    1        5.967  -0.344   0.065  0.00  0.00    +0.148 HD
HETATM    4  C   LIG    1        4.989   1.498  -0.244  0.00  0.00    +0.085 C 
HETATM    5  C   LIG    1        3.690   1.774  -0.290  0.00  0.00    +0.093 C 
HETATM    6  N   LIG    1        2.995   0.589  -0.097  0.00  0.00    -0.278 N 
ENDROOT
BRANCH   6   7
HETATM    7  C   LIG    1        1.602   0.446  -0.074  0.00  0.00    +0.036 A 
HETATM    8  C   LIG    1        1.006  -0.657  -0.673  0.00  0.00    +0.024 A 
HETATM    9  C   LIG    1       -0.368  -0.796  -0.649  0.00  0.00    +0.016 A 
HETATM   10  C   LIG    1       -1.150   0.162  -0.030  0.00  0.00    +0.013 A 
HETATM   11  I   LIG    1       -3.234  -0.053   0.004  0.00  0.00    -0.044 I 
HETATM   12  C   LIG    1       -0.560   1.262   0.567  0.00  0.00    +0.016 A 
HETATM   13  C   LIG    1        0.814   1.403   0.551  0.00  0.00    +0.024 A 
ENDBRANCH   6   7
BRANCH   1  14
HETATM   14  S   LIG    1        3.536  -2.050   0.350  0.00  0.00    -0.137 S 
HETATM   15  H   LIG    1        4.171  -2.746   0.470  0.00  0.00    +0.105 HD
ENDBRANCH   1  14
TORSDOF 2

