


ROOT
HETATM    1  C   LIG    1       -2.341  -0.186  -0.164  0.00  0.00    +0.008 A 
HETATM    2  C   LIG    1       -1.450  -1.105  -0.706  0.00  0.00    +0.016 A 
HETATM    3  C   LIG    1       -0.095  -0.841  -0.693  0.00  0.00    +0.024 A 
HETATM    4  C   LIG    1        0.378   0.341  -0.138  0.00  0.00    +0.036 A 
HETATM    5  C   LIG    1       -0.513   1.259   0.402  0.00  0.00    +0.024 A 
HETATM    6  C   LIG    1       -1.868   0.999   0.385  0.00  0.00    +0.016 A 
ENDROOT
BRANCH   4   7
HETATM    7  N   LIG    1        1.755   0.608  -0.125  0.00  0.00    -0.278 N 
HETATM    8  C   LIG    1        2.349   1.839  -0.362  0.00  0.00    +0.093 C 
HETATM    9  C   LIG    1        3.665   1.684  -0.261  0.00  0.00    +0.085 C 
HETATM   10  N   LIG    1        3.915   0.354   0.042  0.00  0.00    -0.322 N 
HETATM   11  H   LIG    1        4.789  -0.045   0.174  0.00  0.00    +0.148 HD
HETATM   12  C   LIG    1        2.732  -0.285   0.126  0.00  0.00    +0.220 C 
BRANCH  12  13
HETATM   13  S   LIG    1        2.510  -1.945   0.479  0.00  0.00    -0.137 S 
HETATM   14  H   LIG    1        3.199  -2.575   0.656  0.00  0.00    +0.105 HD
ENDBRANCH  12  13
ENDBRANCH   4   7
BRANCH   1  16
HETATM   15  C   LIG    1       -4.690   0.978   0.630  0.00  0.00    +0.090 C 
HETATM   16  S   LIG    1       -4.071  -0.522  -0.180  0.00  0.00    -0.129 S 
ENDBRANCH   1  16
TORSDOF 3

