


ROOT
HETATM    1  C   LIG    1       -2.711  -0.248  -0.165  0.00  0.00    +0.120 A 
HETATM    2  C   LIG    1       -1.809  -1.137  -0.731  0.00  0.00    +0.047 A 
HETATM    3  C   LIG    1       -0.457  -0.854  -0.714  0.00  0.00    +0.027 A 
HETATM    4  C   LIG    1       -0.001   0.320  -0.130  0.00  0.00    +0.036 A 
HETATM    5  C   LIG    1       -0.905   1.210   0.435  0.00  0.00    +0.027 A 
HETATM    6  C   LIG    1       -2.257   0.928   0.413  0.00  0.00    +0.047 A 
ENDROOT
BRANCH   4   7
HETATM    7  N   LIG    1        1.371   0.608  -0.113  0.00  0.00    -0.278 N 
HETATM    8  C   LIG    1        1.945   1.854  -0.319  0.00  0.00    +0.093 C 
HETATM    9  C   LIG    1        3.264   1.717  -0.223  0.00  0.00    +0.085 C 
HETATM   10  N   LIG    1        3.536   0.384   0.044  0.00  0.00    -0.322 N 
HETATM   11  H   LIG    1        4.416  -0.005   0.165  0.00  0.00    +0.148 HD
HETATM   12  C   LIG    1        2.363  -0.276   0.113  0.00  0.00    +0.220 C 
BRANCH  12  13
HETATM   13  S   LIG    1        2.167  -1.948   0.423  0.00  0.00    -0.137 S 
HETATM   14  H   LIG    1        2.866  -2.571   0.582  0.00  0.00    +0.105 HD
ENDBRANCH  12  13
ENDBRANCH   4   7
BRANCH   1  16
HETATM   15  C   LIG    1       -4.700   0.562   0.467  0.00  0.00    +0.277 C 
HETATM   16  O   LIG    1       -4.041  -0.527  -0.182  0.00  0.00    -0.495 OA
ENDBRANCH   1  16
TORSDOF 3

