MODEL 1
REMARK VINA RESULT:      -5.5      0.000      0.000



ROOT
HETATM    1  C   LIG    1       45.770  30.119  52.741  0.00  0.00    +0.056 A 
HETATM    2  C   LIG    1       46.284  29.760  51.503  0.00  0.00    +0.026 A 
HETATM    3  C   LIG    1       45.623  28.829  50.725  0.00  0.00    +0.023 A 
HETATM    4  C   LIG    1       44.450  28.253  51.179  0.00  0.00    +0.061 A 
HETATM    5 CL   LIG    1       43.623  27.082  50.198  0.00  0.00    -0.082 Cl
HETATM    6  C   LIG    1       43.935  28.608  52.414  0.00  0.00    +0.079 A 
HETATM    7 CL   LIG    1       42.463  27.882  52.980  0.00  0.00    -0.080 Cl
HETATM    8  C   LIG    1       44.595  29.535  53.199  0.00  0.00    +0.082 A 
HETATM    9 CL   LIG    1       43.949  29.980  54.748  0.00  0.00    -0.080 Cl
ENDROOT
BRANCH   1  15
HETATM   10  C   LIG    1       47.372  30.795  54.468  0.00  0.00    +0.220 C 
HETATM   11  N   LIG    1       47.774  31.963  55.005  0.00  0.00    -0.322 N 
HETATM   12  H   LIG    1       48.443  32.070  55.700  0.00  0.00    +0.148 HD
HETATM   13  C   LIG    1       47.066  32.985  54.390  0.00  0.00    +0.085 C 
HETATM   14  C   LIG    1       46.250  32.437  53.497  0.00  0.00    +0.093 C 
HETATM   15  N   LIG    1       46.438  31.063  53.532  0.00  0.00    -0.276 N 
BRANCH  10  16
HETATM   16  S   LIG    1       47.952  29.240  54.892  0.00  0.00    -0.137 S 
HETATM   17  H   LIG    1       48.849  29.022  55.113  0.00  0.00    +0.105 HD
ENDBRANCH  10  16
ENDBRANCH   1  15
TORSDOF 2

ENDMDL
MODEL 2
REMARK VINA RESULT:      -5.1     25.204     26.095



ROOT
HETATM    1  C   LIG    1       61.747  49.637  46.511  0.00  0.00    +0.056 A 
HETATM    2  C   LIG    1       62.213  50.487  45.518  0.00  0.00    +0.026 A 
HETATM    3  C   LIG    1       61.323  51.094  44.654  0.00  0.00    +0.023 A 
HETATM    4  C   LIG    1       59.966  50.856  44.777  0.00  0.00    +0.061 A 
HETATM    5 CL   LIG    1       58.849  51.620  43.688  0.00  0.00    -0.082 Cl
HETATM    6  C   LIG    1       59.496  50.008  45.766  0.00  0.00    +0.079 A 
HETATM    7 CL   LIG    1       57.792  49.711  45.917  0.00  0.00    -0.080 Cl
HETATM    8  C   LIG    1       60.384  49.394  46.630  0.00  0.00    +0.082 A 
HETATM    9 CL   LIG    1       59.796  48.331  47.871  0.00  0.00    -0.080 Cl
ENDROOT
BRANCH   1  15
HETATM   10  C   LIG    1       63.236  47.820  47.207  0.00  0.00    +0.220 C 
HETATM   11  N   LIG    1       64.033  47.580  48.267  0.00  0.00    -0.322 N 
HETATM   12  H   LIG    1       64.581  46.790  48.399  0.00  0.00    +0.148 HD
HETATM   13  C   LIG    1       63.934  48.659  49.133  0.00  0.00    +0.085 C 
HETATM   14  C   LIG    1       63.088  49.534  48.601  0.00  0.00    +0.093 C 
HETATM   15  N   LIG    1       62.649  49.021  47.389  0.00  0.00    -0.276 N 
BRANCH  10  16
HETATM   16  S   LIG    1       63.013  46.786  45.861  0.00  0.00    -0.137 S 
HETATM   17  H   LIG    1       63.332  45.894  45.785  0.00  0.00    +0.105 HD
ENDBRANCH  10  16
ENDBRANCH   1  15
TORSDOF 2

ENDMDL
MODEL 3
REMARK VINA RESULT:      -5.0      1.514      2.221



ROOT
HETATM    1  C   LIG    1       45.712  30.208  53.544  0.00  0.00    +0.056 A 
HETATM    2  C   LIG    1       44.679  29.748  54.348  0.00  0.00    +0.026 A 
HETATM    3  C   LIG    1       43.761  28.847  53.845  0.00  0.00    +0.023 A 
HETATM    4  C   LIG    1       43.868  28.403  52.539  0.00  0.00    +0.061 A 
HETATM    5 CL   LIG    1       42.711  27.272  51.910  0.00  0.00    -0.082 Cl
HETATM    6  C   LIG    1       44.898  28.860  51.733  0.00  0.00    +0.079 A 
HETATM    7 CL   LIG    1       45.030  28.301  50.095  0.00  0.00    -0.080 Cl
HETATM    8  C   LIG    1       45.816  29.766  52.230  0.00  0.00    +0.082 A 
HETATM    9 CL   LIG    1       47.107  30.339  51.220  0.00  0.00    -0.080 Cl
ENDROOT
BRANCH   1  15
HETATM   10  C   LIG    1       47.803  30.811  54.670  0.00  0.00    +0.220 C 
HETATM   11  N   LIG    1       48.419  31.960  55.009  0.00  0.00    -0.322 N 
HETATM   12  H   LIG    1       49.273  32.037  55.463  0.00  0.00    +0.148 HD
HETATM   13  C   LIG    1       47.618  33.015  54.595  0.00  0.00    +0.085 C 
HETATM   14  C   LIG    1       46.537  32.504  54.016  0.00  0.00    +0.093 C 
HETATM   15  N   LIG    1       46.645  31.121  54.052  0.00  0.00    -0.276 N 
BRANCH  10  16
HETATM   16  S   LIG    1       48.391  29.231  54.966  0.00  0.00    -0.137 S 
HETATM   17  H   LIG    1       47.863  28.469  55.175  0.00  0.00    +0.105 HD
ENDBRANCH  10  16
ENDBRANCH   1  15
TORSDOF 2

ENDMDL
MODEL 4
REMARK VINA RESULT:      -5.0     24.904     25.887



ROOT
HETATM    1  C   LIG    1       61.132  49.051  47.436  0.00  0.00    +0.056 A 
HETATM    2  C   LIG    1       59.777  48.757  47.504  0.00  0.00    +0.026 A 
HETATM    3  C   LIG    1       58.891  49.385  46.651  0.00  0.00    +0.023 A 
HETATM    4  C   LIG    1       59.351  50.308  45.729  0.00  0.00    +0.061 A 
HETATM    5 CL   LIG    1       58.234  51.096  44.659  0.00  0.00    -0.082 Cl
HETATM    6  C   LIG    1       60.702  50.604  45.658  0.00  0.00    +0.079 A 
HETATM    7 CL   LIG    1       61.276  51.763  44.500  0.00  0.00    -0.080 Cl
HETATM    8  C   LIG    1       61.593  49.982  46.513  0.00  0.00    +0.082 A 
HETATM    9 CL   LIG    1       63.287  50.353  46.425  0.00  0.00    -0.080 Cl
ENDROOT
BRANCH   1  15
HETATM   10  C   LIG    1       62.867  47.406  47.974  0.00  0.00    +0.220 C 
HETATM   11  N   LIG    1       63.570  47.071  49.073  0.00  0.00    -0.322 N 
HETATM   12  H   LIG    1       64.247  46.378  49.127  0.00  0.00    +0.148 HD
HETATM   13  C   LIG    1       63.156  47.890  50.114  0.00  0.00    +0.085 C 
HETATM   14  C   LIG    1       62.218  48.705  49.645  0.00  0.00    +0.093 C 
HETATM   15  N   LIG    1       62.033  48.415  48.300  0.00  0.00    -0.276 N 
BRANCH  10  16
HETATM   16  S   LIG    1       63.014  46.685  46.428  0.00  0.00    -0.137 S 
HETATM   17  H   LIG    1       63.368  47.100  45.650  0.00  0.00    +0.105 HD
ENDBRANCH  10  16
ENDBRANCH   1  15
TORSDOF 2

ENDMDL
MODEL 5
REMARK VINA RESULT:      -5.0     10.115     10.736



ROOT
HETATM    1  C   LIG    1       40.938  21.278  55.604  0.00  0.00    +0.056 A 
HETATM    2  C   LIG    1       39.927  21.997  54.982  0.00  0.00    +0.026 A 
HETATM    3  C   LIG    1       39.491  21.629  53.724  0.00  0.00    +0.023 A 
HETATM    4  C   LIG    1       40.061  20.544  53.082  0.00  0.00    +0.061 A 
HETATM    5 CL   LIG    1       39.511  20.084  51.500  0.00  0.00    -0.082 Cl
HETATM    6  C   LIG    1       41.071  19.824  53.699  0.00  0.00    +0.079 A 
HETATM    7 CL   LIG    1       41.784  18.464  52.891  0.00  0.00    -0.080 Cl
HETATM    8  C   LIG    1       41.515  20.192  54.956  0.00  0.00    +0.082 A 
HETATM    9 CL   LIG    1       42.780  19.290  55.730  0.00  0.00    -0.080 Cl
ENDROOT
BRANCH   1  15
HETATM   10  C   LIG    1       41.018  21.075  58.044  0.00  0.00    +0.220 C 
HETATM   11  N   LIG    1       41.658  21.712  59.044  0.00  0.00    -0.322 N 
HETATM   12  H   LIG    1       41.587  21.505  59.989  0.00  0.00    +0.148 HD
HETATM   13  C   LIG    1       42.437  22.714  58.485  0.00  0.00    +0.085 C 
HETATM   14  C   LIG    1       42.266  22.679  57.168  0.00  0.00    +0.093 C 
HETATM   15  N   LIG    1       41.382  21.650  56.879  0.00  0.00    -0.276 N 
BRANCH  10  16
HETATM   16  S   LIG    1       39.937  19.759  58.220  0.00  0.00    -0.137 S 
HETATM   17  H   LIG    1       39.583  19.230  57.514  0.00  0.00    +0.105 HD
ENDBRANCH  10  16
ENDBRANCH   1  15
TORSDOF 2

ENDMDL
MODEL 6
REMARK VINA RESULT:      -4.9     25.531     27.284



ROOT
HETATM    1  C   LIG    1       61.140  50.552  44.898  0.00  0.00    +0.056 A 
HETATM    2  C   LIG    1       61.588  51.831  45.200  0.00  0.00    +0.026 A 
HETATM    3  C   LIG    1       62.942  52.106  45.199  0.00  0.00    +0.023 A 
HETATM    4  C   LIG    1       63.852  51.109  44.900  0.00  0.00    +0.061 A 
HETATM    5 CL   LIG    1       65.553  51.459  44.902  0.00  0.00    -0.082 Cl
HETATM    6  C   LIG    1       63.410  49.832  44.600  0.00  0.00    +0.079 A 
HETATM    7 CL   LIG    1       64.555  48.582  44.225  0.00  0.00    -0.080 Cl
HETATM    8  C   LIG    1       62.056  49.549  44.604  0.00  0.00    +0.082 A 
HETATM    9 CL   LIG    1       61.500  47.948  44.227  0.00  0.00    -0.080 Cl
ENDROOT
BRANCH   1  15
HETATM   10  C   LIG    1       59.076  49.695  45.902  0.00  0.00    +0.220 C 
HETATM   11  N   LIG    1       57.787  49.597  45.521  0.00  0.00    -0.322 N 
HETATM   12  H   LIG    1       57.064  49.225  46.050  0.00  0.00    +0.148 HD
HETATM   13  C   LIG    1       57.676  50.122  44.242  0.00  0.00    +0.085 C 
HETATM   14  C   LIG    1       58.882  50.528  43.861  0.00  0.00    +0.093 C 
HETATM   15  N   LIG    1       59.768  50.271  44.898  0.00  0.00    -0.276 N 
BRANCH  10  16
HETATM   16  S   LIG    1       59.722  49.185  47.403  0.00  0.00    -0.137 S 
HETATM   17  H   LIG    1       59.788  48.287  47.705  0.00  0.00    +0.105 HD
ENDBRANCH  10  16
ENDBRANCH   1  15
TORSDOF 2

ENDMDL
MODEL 7
REMARK VINA RESULT:      -4.9      1.925      2.471



ROOT
HETATM    1  C   LIG    1       46.372  29.744  52.808  0.00  0.00    +0.056 A 
HETATM    2  C   LIG    1       47.391  30.070  51.925  0.00  0.00    +0.026 A 
HETATM    3  C   LIG    1       47.255  29.790  50.579  0.00  0.00    +0.023 A 
HETATM    4  C   LIG    1       46.104  29.185  50.109  0.00  0.00    +0.061 A 
HETATM    5 CL   LIG    1       45.936  28.834  48.417  0.00  0.00    -0.082 Cl
HETATM    6  C   LIG    1       45.083  28.857  50.987  0.00  0.00    +0.079 A 
HETATM    7 CL   LIG    1       43.640  28.098  50.394  0.00  0.00    -0.080 Cl
HETATM    8  C   LIG    1       45.217  29.130  52.336  0.00  0.00    +0.082 A 
HETATM    9 CL   LIG    1       43.939  28.720  53.437  0.00  0.00    -0.080 Cl
ENDROOT
BRANCH   1  15
HETATM   10  C   LIG    1       45.947  31.064  54.827  0.00  0.00    +0.220 C 
HETATM   11  N   LIG    1       46.312  30.990  56.122  0.00  0.00    -0.322 N 
HETATM   12  H   LIG    1       46.050  31.605  56.824  0.00  0.00    +0.148 HD
HETATM   13  C   LIG    1       47.127  29.878  56.276  0.00  0.00    +0.085 C 
HETATM   14  C   LIG    1       47.249  29.294  55.089  0.00  0.00    +0.093 C 
HETATM   15  N   LIG    1       46.508  30.027  54.173  0.00  0.00    -0.276 N 
BRANCH  10  16
HETATM   16  S   LIG    1       44.940  32.263  54.134  0.00  0.00    -0.137 S 
HETATM   17  H   LIG    1       44.086  32.527  54.455  0.00  0.00    +0.105 HD
ENDBRANCH  10  16
ENDBRANCH   1  15
TORSDOF 2

ENDMDL
MODEL 8
REMARK VINA RESULT:      -4.8     20.567     21.036



ROOT
HETATM    1  C   LIG    1       29.725  41.679  47.350  0.00  0.00    +0.056 A 
HETATM    2  C   LIG    1       31.086  41.461  47.511  0.00  0.00    +0.026 A 
HETATM    3  C   LIG    1       31.708  40.438  46.821  0.00  0.00    +0.023 A 
HETATM    4  C   LIG    1       30.975  39.629  45.971  0.00  0.00    +0.061 A 
HETATM    5 CL   LIG    1       31.759  38.343  45.107  0.00  0.00    -0.082 Cl
HETATM    6  C   LIG    1       29.616  39.843  45.808  0.00  0.00    +0.079 A 
HETATM    7 CL   LIG    1       28.700  38.826  44.741  0.00  0.00    -0.080 Cl
HETATM    8  C   LIG    1       28.988  40.862  46.500  0.00  0.00    +0.082 A 
HETATM    9 CL   LIG    1       27.285  41.131  46.296  0.00  0.00    -0.080 Cl
ENDROOT
BRANCH   1  15
HETATM   10  C   LIG    1       28.784  43.932  47.553  0.00  0.00    +0.220 C 
HETATM   11  N   LIG    1       28.186  44.643  48.528  0.00  0.00    -0.322 N 
HETATM   12  H   LIG    1       27.854  45.551  48.450  0.00  0.00    +0.148 HD
HETATM   13  C   LIG    1       28.126  43.848  49.664  0.00  0.00    +0.085 C 
HETATM   14  C   LIG    1       28.681  42.677  49.373  0.00  0.00    +0.093 C 
HETATM   15  N   LIG    1       29.093  42.716  48.048  0.00  0.00    -0.276 N 
BRANCH  10  16
HETATM   16  S   LIG    1       29.092  44.475  45.959  0.00  0.00    -0.137 S 
HETATM   17  H   LIG    1       28.798  45.297  45.583  0.00  0.00    +0.105 HD
ENDBRANCH  10  16
ENDBRANCH   1  15
TORSDOF 2

ENDMDL
MODEL 9
REMARK VINA RESULT:      -4.7     32.457     34.022



ROOT
HETATM    1  C   LIG    1       51.963  62.185  59.121  0.00  0.00    +0.056 A 
HETATM    2  C   LIG    1       51.350  61.077  59.689  0.00  0.00    +0.026 A 
HETATM    3  C   LIG    1       52.116  60.095  60.287  0.00  0.00    +0.023 A 
HETATM    4  C   LIG    1       53.493  60.214  60.320  0.00  0.00    +0.061 A 
HETATM    5 CL   LIG    1       54.453  58.978  61.073  0.00  0.00    -0.082 Cl
HETATM    6  C   LIG    1       54.109  61.318  59.754  0.00  0.00    +0.079 A 
HETATM    7 CL   LIG    1       55.838  61.464  59.798  0.00  0.00    -0.080 Cl
HETATM    8  C   LIG    1       53.348  62.301  59.149  0.00  0.00    +0.082 A 
HETATM    9 CL   LIG    1       54.119  63.686  58.440  0.00  0.00    -0.080 Cl
ENDROOT
BRANCH   1  15
HETATM   10  C   LIG    1       50.632  64.242  59.135  0.00  0.00    +0.220 C 
HETATM   11  N   LIG    1       49.969  64.968  58.213  0.00  0.00    -0.322 N 
HETATM   12  H   LIG    1       49.478  65.788  58.379  0.00  0.00    +0.148 HD
HETATM   13  C   LIG    1       50.112  64.337  56.986  0.00  0.00    +0.085 C 
HETATM   14  C   LIG    1       50.851  63.248  57.169  0.00  0.00    +0.093 C 
HETATM   15  N   LIG    1       51.188  63.182  58.513  0.00  0.00    -0.276 N 
BRANCH  10  16
HETATM   16  S   LIG    1       50.755  64.607  60.803  0.00  0.00    -0.137 S 
HETATM   17  H   LIG    1       50.437  65.397  61.225  0.00  0.00    +0.105 HD
ENDBRANCH  10  16
ENDBRANCH   1  15
TORSDOF 2

ENDMDL
