MODEL 1
REMARK VINA RESULT:      -5.9      0.000      0.000



ROOT
HETATM    1  C   LIG    1       58.881  50.646  44.752  0.00  0.00    -0.026 A 
HETATM    2  C   LIG    1       58.559  51.685  43.901  0.00  0.00    +0.005 A 
HETATM    3  C   LIG    1       59.473  52.694  43.661  0.00  0.00    +0.000 A 
HETATM    4  C   LIG    1       60.714  52.665  44.271  0.00  0.00    +0.002 A 
HETATM    5  C   LIG    1       61.043  51.630  45.123  0.00  0.00    +0.024 A 
HETATM    6  C   LIG    1       60.124  50.618  45.371  0.00  0.00    +0.039 A 
ENDROOT
BRANCH   6   7
HETATM    7  N   LIG    1       60.454  49.566  46.234  0.00  0.00    -0.278 N 
HETATM    8  C   LIG    1       59.976  49.389  47.524  0.00  0.00    +0.093 C 
HETATM    9  C   LIG    1       60.520  48.280  48.014  0.00  0.00    +0.085 C 
HETATM   10  N   LIG    1       61.347  47.744  47.038  0.00  0.00    -0.322 N 
HETATM   11  H   LIG    1       61.873  46.934  47.119  0.00  0.00    +0.148 HD
HETATM   12  C   LIG    1       61.288  48.545  45.955  0.00  0.00    +0.220 C 
BRANCH  12  13
HETATM   13  S   LIG    1       62.133  48.310  44.484  0.00  0.00    -0.137 S 
HETATM   14  H   LIG    1       62.624  47.535  44.242  0.00  0.00    +0.105 HD
ENDBRANCH  12  13
ENDBRANCH   6   7
BRANCH   1  16
HETATM   15  C   LIG    1       57.340  49.024  43.682  0.00  0.00    +0.009 C 
HETATM   16  C   LIG    1       57.884  49.548  45.013  0.00  0.00    +0.033 C 
ENDBRANCH   1  16
TORSDOF 3

ENDMDL
MODEL 2
REMARK VINA RESULT:      -5.8      1.518      1.996



ROOT
HETATM    1  C   LIG    1       59.574  50.108  44.310  0.00  0.00    -0.026 A 
HETATM    2  C   LIG    1       58.985  51.310  43.970  0.00  0.00    +0.005 A 
HETATM    3  C   LIG    1       59.696  52.490  44.094  0.00  0.00    +0.000 A 
HETATM    4  C   LIG    1       60.999  52.469  44.558  0.00  0.00    +0.002 A 
HETATM    5  C   LIG    1       61.593  51.271  44.900  0.00  0.00    +0.024 A 
HETATM    6  C   LIG    1       60.880  50.085  44.782  0.00  0.00    +0.039 A 
ENDROOT
BRANCH   6   7
HETATM    7  N   LIG    1       61.480  48.868  45.128  0.00  0.00    -0.278 N 
HETATM    8  C   LIG    1       62.218  48.053  44.281  0.00  0.00    +0.093 C 
HETATM    9  C   LIG    1       62.616  46.993  44.978  0.00  0.00    +0.085 C 
HETATM   10  N   LIG    1       62.134  47.128  46.271  0.00  0.00    -0.322 N 
HETATM   11  H   LIG    1       62.271  46.502  46.998  0.00  0.00    +0.148 HD
HETATM   12  C   LIG    1       61.445  48.285  46.341  0.00  0.00    +0.220 C 
BRANCH  12  13
HETATM   13  S   LIG    1       60.655  48.901  47.730  0.00  0.00    -0.137 S 
HETATM   14  H   LIG    1       60.306  48.386  48.447  0.00  0.00    +0.105 HD
ENDBRANCH  12  13
ENDBRANCH   6   7
BRANCH   1  16
HETATM   15  C   LIG    1       57.350  49.138  43.798  0.00  0.00    +0.009 C 
HETATM   16  C   LIG    1       58.799  48.823  44.175  0.00  0.00    +0.033 C 
ENDBRANCH   1  16
TORSDOF 3

ENDMDL
MODEL 3
REMARK VINA RESULT:      -5.6      1.736      3.344



ROOT
HETATM    1  C   LIG    1       61.462  51.214  44.912  0.00  0.00    -0.026 A 
HETATM    2  C   LIG    1       60.801  52.366  44.535  0.00  0.00    +0.005 A 
HETATM    3  C   LIG    1       59.514  52.295  44.035  0.00  0.00    +0.000 A 
HETATM    4  C   LIG    1       58.884  51.069  43.912  0.00  0.00    +0.002 A 
HETATM    5  C   LIG    1       59.540  49.914  44.287  0.00  0.00    +0.024 A 
HETATM    6  C   LIG    1       60.835  49.982  44.784  0.00  0.00    +0.039 A 
ENDROOT
BRANCH   6   7
HETATM    7  N   LIG    1       61.503  48.812  45.166  0.00  0.00    -0.278 N 
HETATM    8  C   LIG    1       62.309  48.030  44.351  0.00  0.00    +0.093 C 
HETATM    9  C   LIG    1       62.759  47.011  45.076  0.00  0.00    +0.085 C 
HETATM   10  N   LIG    1       62.241  47.138  46.356  0.00  0.00    -0.322 N 
HETATM   11  H   LIG    1       62.402  46.535  47.098  0.00  0.00    +0.148 HD
HETATM   12  C   LIG    1       61.480  48.250  46.390  0.00  0.00    +0.220 C 
BRANCH  12  13
HETATM   13  S   LIG    1       60.623  48.840  47.750  0.00  0.00    -0.137 S 
HETATM   14  H   LIG    1       60.669  48.490  48.632  0.00  0.00    +0.105 HD
ENDBRANCH  12  13
ENDBRANCH   6   7
BRANCH   1  16
HETATM   15  C   LIG    1       63.700  52.231  44.583  0.00  0.00    +0.009 C 
HETATM   16  C   LIG    1       62.865  51.293  45.456  0.00  0.00    +0.033 C 
ENDBRANCH   1  16
TORSDOF 3

ENDMDL
MODEL 4
REMARK VINA RESULT:      -5.4     24.576     26.259



ROOT
HETATM    1  C   LIG    1       45.308  29.411  51.779  0.00  0.00    -0.026 A 
HETATM    2  C   LIG    1       44.802  28.354  51.047  0.00  0.00    +0.005 A 
HETATM    3  C   LIG    1       43.819  27.545  51.586  0.00  0.00    +0.000 A 
HETATM    4  C   LIG    1       43.338  27.792  52.860  0.00  0.00    +0.002 A 
HETATM    5  C   LIG    1       43.840  28.846  53.596  0.00  0.00    +0.024 A 
HETATM    6  C   LIG    1       44.832  29.657  53.060  0.00  0.00    +0.039 A 
ENDROOT
BRANCH   6   7
HETATM    7  N   LIG    1       45.342  30.727  53.804  0.00  0.00    -0.278 N 
HETATM    8  C   LIG    1       44.844  32.022  53.818  0.00  0.00    +0.093 C 
HETATM    9  C   LIG    1       45.598  32.742  54.644  0.00  0.00    +0.085 C 
HETATM   10  N   LIG    1       46.578  31.908  55.160  0.00  0.00    -0.322 N 
HETATM   11  H   LIG    1       47.269  32.165  55.791  0.00  0.00    +0.148 HD
HETATM   12  C   LIG    1       46.400  30.680  54.637  0.00  0.00    +0.220 C 
BRANCH  12  13
HETATM   13  S   LIG    1       47.359  29.299  54.965  0.00  0.00    -0.137 S 
HETATM   14  H   LIG    1       47.036  28.450  55.241  0.00  0.00    +0.105 HD
ENDBRANCH  12  13
ENDBRANCH   6   7
BRANCH   1  16
HETATM   15  C   LIG    1       47.666  29.483  51.014  0.00  0.00    +0.009 C 
HETATM   16  C   LIG    1       46.379  30.292  51.190  0.00  0.00    +0.033 C 
ENDBRANCH   1  16
TORSDOF 3

ENDMDL
MODEL 5
REMARK VINA RESULT:      -5.3      2.144      3.796



ROOT
HETATM    1  C   LIG    1       62.014  49.536  44.613  0.00  0.00    -0.026 A 
HETATM    2  C   LIG    1       63.365  49.825  44.613  0.00  0.00    +0.005 A 
HETATM    3  C   LIG    1       63.800  51.104  44.904  0.00  0.00    +0.000 A 
HETATM    4  C   LIG    1       62.884  52.099  45.198  0.00  0.00    +0.002 A 
HETATM    5  C   LIG    1       61.533  51.817  45.200  0.00  0.00    +0.024 A 
HETATM    6  C   LIG    1       61.092  50.534  44.902  0.00  0.00    +0.039 A 
ENDROOT
BRANCH   6   7
HETATM    7  N   LIG    1       59.722  50.244  44.902  0.00  0.00    -0.278 N 
HETATM    8  C   LIG    1       58.839  50.478  43.859  0.00  0.00    +0.093 C 
HETATM    9  C   LIG    1       57.634  50.069  44.243  0.00  0.00    +0.085 C 
HETATM   10  N   LIG    1       57.744  49.572  45.533  0.00  0.00    -0.322 N 
HETATM   11  H   LIG    1       57.022  49.205  46.066  0.00  0.00    +0.148 HD
HETATM   12  C   LIG    1       59.032  49.685  45.915  0.00  0.00    +0.220 C 
BRANCH  12  13
HETATM   13  S   LIG    1       59.677  49.208  47.428  0.00  0.00    -0.137 S 
HETATM   14  H   LIG    1       59.937  48.327  47.670  0.00  0.00    +0.105 HD
ENDBRANCH  12  13
ENDBRANCH   6   7
BRANCH   1  16
HETATM   15  C   LIG    1       62.749  47.223  44.103  0.00  0.00    +0.009 C 
HETATM   16  C   LIG    1       61.541  48.141  44.296  0.00  0.00    +0.033 C 
ENDBRANCH   1  16
TORSDOF 3

ENDMDL
MODEL 6
REMARK VINA RESULT:      -5.2     24.866     25.990



ROOT
HETATM    1  C   LIG    1       44.857  29.126  52.162  0.00  0.00    -0.026 A 
HETATM    2  C   LIG    1       44.896  28.324  51.039  0.00  0.00    +0.005 A 
HETATM    3  C   LIG    1       45.951  28.426  50.151  0.00  0.00    +0.000 A 
HETATM    4  C   LIG    1       46.971  29.331  50.385  0.00  0.00    +0.002 A 
HETATM    5  C   LIG    1       46.936  30.136  51.506  0.00  0.00    +0.024 A 
HETATM    6  C   LIG    1       45.875  30.041  52.397  0.00  0.00    +0.039 A 
ENDROOT
BRANCH   6   7
HETATM    7  N   LIG    1       45.838  30.856  53.534  0.00  0.00    -0.278 N 
HETATM    8  C   LIG    1       45.128  32.041  53.665  0.00  0.00    +0.093 C 
HETATM    9  C   LIG    1       45.347  32.516  54.888  0.00  0.00    +0.085 C 
HETATM   10  N   LIG    1       46.197  31.636  55.541  0.00  0.00    -0.322 N 
HETATM   11  H   LIG    1       46.526  31.730  56.448  0.00  0.00    +0.148 HD
HETATM   12  C   LIG    1       46.480  30.625  54.696  0.00  0.00    +0.220 C 
BRANCH  12  13
HETATM   13  S   LIG    1       47.489  29.284  55.036  0.00  0.00    -0.137 S 
HETATM   14  H   LIG    1       48.138  29.237  55.727  0.00  0.00    +0.105 HD
ENDBRANCH  12  13
ENDBRANCH   6   7
BRANCH   1  16
HETATM   15  C   LIG    1       42.776  27.883  52.688  0.00  0.00    +0.009 C 
HETATM   16  C   LIG    1       43.706  29.015  53.129  0.00  0.00    +0.033 C 
ENDBRANCH   1  16
TORSDOF 3

ENDMDL
MODEL 7
REMARK VINA RESULT:      -5.2      2.001      3.565



ROOT
HETATM    1  C   LIG    1       60.690  49.968  45.613  0.00  0.00    -0.026 A 
HETATM    2  C   LIG    1       59.319  50.110  45.517  0.00  0.00    +0.005 A 
HETATM    3  C   LIG    1       58.497  49.566  46.487  0.00  0.00    +0.000 A 
HETATM    4  C   LIG    1       59.045  48.880  47.556  0.00  0.00    +0.002 A 
HETATM    5  C   LIG    1       60.414  48.735  47.657  0.00  0.00    +0.024 A 
HETATM    6  C   LIG    1       61.242  49.274  46.681  0.00  0.00    +0.039 A 
ENDROOT
BRANCH   6   7
HETATM    7  N   LIG    1       62.631  49.129  46.781  0.00  0.00    -0.278 N 
HETATM    8  C   LIG    1       63.493  49.975  47.463  0.00  0.00    +0.093 C 
HETATM    9  C   LIG    1       64.727  49.502  47.323  0.00  0.00    +0.085 C 
HETATM   10  N   LIG    1       64.657  48.351  46.552  0.00  0.00    -0.322 N 
HETATM   11  H   LIG    1       65.407  47.795  46.289  0.00  0.00    +0.148 HD
HETATM   12  C   LIG    1       63.365  48.139  46.235  0.00  0.00    +0.220 C 
BRANCH  12  13
HETATM   13  S   LIG    1       62.760  46.842  45.295  0.00  0.00    -0.137 S 
HETATM   14  H   LIG    1       62.815  45.920  45.517  0.00  0.00    +0.105 HD
ENDBRANCH  12  13
ENDBRANCH   6   7
BRANCH   1  16
HETATM   15  C   LIG    1       61.684  52.073  44.758  0.00  0.00    +0.009 C 
HETATM   16  C   LIG    1       61.585  50.560  44.555  0.00  0.00    +0.033 C 
ENDBRANCH   1  16
TORSDOF 3

ENDMDL
MODEL 8
REMARK VINA RESULT:      -5.1     23.891     25.575



ROOT
HETATM    1  C   LIG    1       44.749  29.744  53.680  0.00  0.00    -0.026 A 
HETATM    2  C   LIG    1       43.914  28.839  53.056  0.00  0.00    +0.005 A 
HETATM    3  C   LIG    1       44.057  28.582  51.705  0.00  0.00    +0.000 A 
HETATM    4  C   LIG    1       45.039  29.228  50.975  0.00  0.00    +0.002 A 
HETATM    5  C   LIG    1       45.878  30.133  51.594  0.00  0.00    +0.024 A 
HETATM    6  C   LIG    1       45.732  30.399  52.950  0.00  0.00    +0.039 A 
ENDROOT
BRANCH   6   7
HETATM    7  N   LIG    1       46.581  31.317  53.580  0.00  0.00    -0.278 N 
HETATM    8  C   LIG    1       46.313  32.661  53.795  0.00  0.00    +0.093 C 
HETATM    9  C   LIG    1       47.359  33.192  54.420  0.00  0.00    +0.085 C 
HETATM   10  N   LIG    1       48.298  32.188  54.607  0.00  0.00    -0.322 N 
HETATM   11  H   LIG    1       49.161  32.289  55.038  0.00  0.00    +0.148 HD
HETATM   12  C   LIG    1       47.799  31.048  54.090  0.00  0.00    +0.220 C 
BRANCH  12  13
HETATM   13  S   LIG    1       48.581  29.525  54.074  0.00  0.00    -0.137 S 
HETATM   14  H   LIG    1       48.921  29.081  53.307  0.00  0.00    +0.105 HD
ENDBRANCH  12  13
ENDBRANCH   6   7
BRANCH   1  16
HETATM   15  C   LIG    1       43.513  31.089  55.357  0.00  0.00    +0.009 C 
HETATM   16  C   LIG    1       44.592  30.024  55.152  0.00  0.00    +0.033 C 
ENDBRANCH   1  16
TORSDOF 3

ENDMDL
MODEL 9
REMARK VINA RESULT:      -5.0      1.908      2.627



ROOT
HETATM    1  C   LIG    1       60.433  49.690  46.464  0.00  0.00    -0.026 A 
HETATM    2  C   LIG    1       59.667  50.424  45.580  0.00  0.00    +0.005 A 
HETATM    3  C   LIG    1       60.278  51.249  44.654  0.00  0.00    +0.000 A 
HETATM    4  C   LIG    1       61.658  51.340  44.608  0.00  0.00    +0.002 A 
HETATM    5  C   LIG    1       62.429  50.608  45.489  0.00  0.00    +0.024 A 
HETATM    6  C   LIG    1       61.818  49.783  46.425  0.00  0.00    +0.039 A 
ENDROOT
BRANCH   6   7
HETATM    7  N   LIG    1       62.597  49.040  47.319  0.00  0.00    -0.278 N 
HETATM    8  C   LIG    1       62.990  49.442  48.588  0.00  0.00    +0.093 C 
HETATM    9  C   LIG    1       63.716  48.464  49.121  0.00  0.00    +0.085 C 
HETATM   10  N   LIG    1       63.789  47.434  48.194  0.00  0.00    -0.322 N 
HETATM   11  H   LIG    1       64.256  46.593  48.314  0.00  0.00    +0.148 HD
HETATM   12  C   LIG    1       63.093  47.806  47.102  0.00  0.00    +0.220 C 
BRANCH  12  13
HETATM   13  S   LIG    1       62.884  46.876  45.679  0.00  0.00    -0.137 S 
HETATM   14  H   LIG    1       63.362  46.087  45.454  0.00  0.00    +0.105 HD
ENDBRANCH  12  13
ENDBRANCH   6   7
BRANCH   1  16
HETATM   15  C   LIG    1       58.281  49.142  47.567  0.00  0.00    +0.009 C 
HETATM   16  C   LIG    1       59.767  48.792  47.473  0.00  0.00    +0.033 C 
ENDBRANCH   1  16
TORSDOF 3

ENDMDL
