MODEL 1
REMARK VINA RESULT:      -6.1      0.000      0.000



ROOT
HETATM    1  C   LIG    1       45.830  30.302  53.107  0.00  0.00    +0.036 A 
HETATM    2  C   LIG    1       45.923  30.046  51.745  0.00  0.00    +0.024 A 
HETATM    3  C   LIG    1       45.176  29.030  51.182  0.00  0.00    +0.014 A 
HETATM    4  C   LIG    1       44.336  28.268  51.973  0.00  0.00    +0.055 A 
HETATM    5  C   LIG    1       44.241  28.520  53.329  0.00  0.00    +0.014 A 
HETATM    6  C   LIG    1       44.990  29.531  53.899  0.00  0.00    +0.024 A 
ENDROOT
BRANCH   1  12
HETATM    7  C   LIG    1       47.874  31.245  54.070  0.00  0.00    +0.220 C 
HETATM    8  N   LIG    1       48.241  32.441  54.571  0.00  0.00    -0.322 N 
HETATM    9  H   LIG    1       49.116  32.667  54.922  0.00  0.00    +0.148 HD
HETATM   10  C   LIG    1       47.149  33.291  54.496  0.00  0.00    +0.085 C 
HETATM   11  C   LIG    1       46.140  32.615  53.958  0.00  0.00    +0.093 C 
HETATM   12  N   LIG    1       46.587  31.331  53.681  0.00  0.00    -0.278 N 
BRANCH   7  13
HETATM   13  S   LIG    1       48.872  29.860  53.944  0.00  0.00    -0.137 S 
HETATM   14  H   LIG    1       49.472  29.543  54.608  0.00  0.00    +0.105 HD
ENDBRANCH   7  13
ENDBRANCH   1  12
BRANCH   4  15
HETATM   15  C   LIG    1       43.523  27.159  51.355  0.00  0.00    +0.417 C 
HETATM   16  F   LIG    1       44.252  25.966  51.397  0.00  0.00    -0.166 F 
HETATM   17  F   LIG    1       42.331  27.002  52.070  0.00  0.00    -0.166 F 
HETATM   18  F   LIG    1       43.231  27.481  50.025  0.00  0.00    -0.166 F 
ENDBRANCH   4  15
TORSDOF 3

ENDMDL
MODEL 2
REMARK VINA RESULT:      -5.8     26.041     27.173



ROOT
HETATM    1  C   LIG    1       61.609  49.145  44.845  0.00  0.00    +0.036 A 
HETATM    2  C   LIG    1       62.256  50.374  44.880  0.00  0.00    +0.024 A 
HETATM    3  C   LIG    1       61.567  51.525  44.556  0.00  0.00    +0.014 A 
HETATM    4  C   LIG    1       60.232  51.456  44.199  0.00  0.00    +0.055 A 
HETATM    5  C   LIG    1       59.585  50.235  44.164  0.00  0.00    +0.014 A 
HETATM    6  C   LIG    1       60.271  49.079  44.480  0.00  0.00    +0.024 A 
ENDROOT
BRANCH   1  12
HETATM    7  C   LIG    1       62.483  47.479  46.412  0.00  0.00    +0.220 C 
HETATM    8  N   LIG    1       63.203  46.344  46.311  0.00  0.00    -0.322 N 
HETATM    9  H   LIG    1       63.475  45.775  47.047  0.00  0.00    +0.148 HD
HETATM   10  C   LIG    1       63.486  46.133  44.971  0.00  0.00    +0.085 C 
HETATM   11  C   LIG    1       62.943  47.128  44.277  0.00  0.00    +0.093 C 
HETATM   12  N   LIG    1       62.306  47.975  45.172  0.00  0.00    -0.278 N 
BRANCH   7  13
HETATM   13  S   LIG    1       61.890  48.166  47.863  0.00  0.00    -0.137 S 
HETATM   14  H   LIG    1       62.235  48.012  48.735  0.00  0.00    +0.105 HD
ENDBRANCH   7  13
ENDBRANCH   1  12
BRANCH   4  15
HETATM   15  C   LIG    1       59.483  52.715  43.846  0.00  0.00    +0.417 C 
HETATM   16  F   LIG    1       59.059  53.350  45.019  0.00  0.00    -0.166 F 
HETATM   17  F   LIG    1       60.324  53.573  43.130  0.00  0.00    -0.166 F 
HETATM   18  F   LIG    1       58.370  52.391  43.064  0.00  0.00    -0.166 F 
ENDBRANCH   4  15
TORSDOF 3

ENDMDL
MODEL 3
REMARK VINA RESULT:      -5.6     24.829     25.810



ROOT
HETATM    1  C   LIG    1       61.172  49.086  47.458  0.00  0.00    +0.036 A 
HETATM    2  C   LIG    1       59.810  48.849  47.602  0.00  0.00    +0.024 A 
HETATM    3  C   LIG    1       58.917  49.394  46.701  0.00  0.00    +0.014 A 
HETATM    4  C   LIG    1       59.377  50.174  45.656  0.00  0.00    +0.055 A 
HETATM    5  C   LIG    1       60.731  50.412  45.510  0.00  0.00    +0.014 A 
HETATM    6  C   LIG    1       61.629  49.875  46.412  0.00  0.00    +0.024 A 
ENDROOT
BRANCH   1  12
HETATM    7  C   LIG    1       62.952  47.540  48.117  0.00  0.00    +0.220 C 
HETATM    8  N   LIG    1       63.649  47.295  49.244  0.00  0.00    -0.322 N 
HETATM    9  H   LIG    1       64.348  46.630  49.349  0.00  0.00    +0.148 HD
HETATM   10  C   LIG    1       63.192  48.159  50.227  0.00  0.00    +0.085 C 
HETATM   11  C   LIG    1       62.235  48.912  49.697  0.00  0.00    +0.093 C 
HETATM   12  N   LIG    1       62.080  48.535  48.371  0.00  0.00    -0.278 N 
BRANCH   7  13
HETATM   13  S   LIG    1       63.146  46.731  46.621  0.00  0.00    -0.137 S 
HETATM   14  H   LIG    1       63.907  46.782  46.054  0.00  0.00    +0.105 HD
ENDBRANCH   7  13
ENDBRANCH   1  12
BRANCH   4  15
HETATM   15  C   LIG    1       58.399  50.768  44.675  0.00  0.00    +0.417 C 
HETATM   16  F   LIG    1       58.124  52.092  45.034  0.00  0.00    -0.166 F 
HETATM   17  F   LIG    1       58.951  50.739  43.391  0.00  0.00    -0.166 F 
HETATM   18  F   LIG    1       57.213  50.025  44.691  0.00  0.00    -0.166 F 
ENDBRANCH   4  15
TORSDOF 3

ENDMDL
MODEL 4
REMARK VINA RESULT:      -5.4     27.046     27.992



ROOT
HETATM    1  C   LIG    1       62.772  50.132  45.021  0.00  0.00    +0.036 A 
HETATM    2  C   LIG    1       62.714  51.520  45.009  0.00  0.00    +0.024 A 
HETATM    3  C   LIG    1       61.534  52.158  44.683  0.00  0.00    +0.014 A 
HETATM    4  C   LIG    1       60.409  51.417  44.370  0.00  0.00    +0.055 A 
HETATM    5  C   LIG    1       60.463  50.035  44.381  0.00  0.00    +0.014 A 
HETATM    6  C   LIG    1       61.643  49.391  44.700  0.00  0.00    +0.024 A 
ENDROOT
BRANCH   1  12
HETATM    7  C   LIG    1       64.364  49.134  46.590  0.00  0.00    +0.220 C 
HETATM    8  N   LIG    1       65.565  48.531  46.492  0.00  0.00    -0.322 N 
HETATM    9  H   LIG    1       66.085  48.174  47.229  0.00  0.00    +0.148 HD
HETATM   10  C   LIG    1       65.927  48.509  45.154  0.00  0.00    +0.085 C 
HETATM   11  C   LIG    1       64.957  49.092  44.459  0.00  0.00    +0.093 C 
HETATM   12  N   LIG    1       63.968  49.482  45.351  0.00  0.00    -0.278 N 
BRANCH   7  13
HETATM   13  S   LIG    1       63.491  49.404  48.038  0.00  0.00    -0.137 S 
HETATM   14  H   LIG    1       63.366  48.776  48.739  0.00  0.00    +0.105 HD
ENDBRANCH   7  13
ENDBRANCH   1  12
BRANCH   4  15
HETATM   15  C   LIG    1       59.123  52.117  44.014  0.00  0.00    +0.417 C 
HETATM   16  F   LIG    1       58.472  51.409  42.998  0.00  0.00    -0.166 F 
HETATM   17  F   LIG    1       58.298  52.177  45.142  0.00  0.00    -0.166 F 
HETATM   18  F   LIG    1       59.405  53.413  43.572  0.00  0.00    -0.166 F 
ENDBRANCH   4  15
TORSDOF 3

ENDMDL
MODEL 5
REMARK VINA RESULT:      -5.2     25.455     26.228



ROOT
HETATM    1  C   LIG    1       61.796  48.662  46.166  0.00  0.00    +0.036 A 
HETATM    2  C   LIG    1       60.762  48.972  47.041  0.00  0.00    +0.024 A 
HETATM    3  C   LIG    1       59.604  49.552  46.563  0.00  0.00    +0.014 A 
HETATM    4  C   LIG    1       59.473  49.824  45.213  0.00  0.00    +0.055 A 
HETATM    5  C   LIG    1       60.499  49.518  44.340  0.00  0.00    +0.014 A 
HETATM    6  C   LIG    1       61.663  48.943  44.813  0.00  0.00    +0.024 A 
ENDROOT
BRANCH   1  12
HETATM    7  C   LIG    1       64.083  48.729  47.036  0.00  0.00    +0.220 C 
HETATM    8  N   LIG    1       64.991  47.816  47.435  0.00  0.00    -0.322 N 
HETATM    9  H   LIG    1       65.881  48.007  47.769  0.00  0.00    +0.148 HD
HETATM   10  C   LIG    1       64.428  46.559  47.285  0.00  0.00    +0.085 C 
HETATM   11  C   LIG    1       63.200  46.714  46.802  0.00  0.00    +0.093 C 
HETATM   12  N   LIG    1       62.972  48.074  46.649  0.00  0.00    -0.278 N 
BRANCH   7  13
HETATM   13  S   LIG    1       64.302  50.427  47.031  0.00  0.00    -0.137 S 
HETATM   14  H   LIG    1       64.619  50.951  47.757  0.00  0.00    +0.105 HD
ENDBRANCH   7  13
ENDBRANCH   1  12
BRANCH   4  15
HETATM   15  C   LIG    1       58.208  50.459  44.694  0.00  0.00    +0.417 C 
HETATM   16  F   LIG    1       58.134  51.783  45.138  0.00  0.00    -0.166 F 
HETATM   17  F   LIG    1       58.214  50.436  43.296  0.00  0.00    -0.166 F 
HETATM   18  F   LIG    1       57.101  49.746  45.168  0.00  0.00    -0.166 F 
ENDBRANCH   4  15
TORSDOF 3

ENDMDL
MODEL 6
REMARK VINA RESULT:      -5.2      9.439     10.391



ROOT
HETATM    1  C   LIG    1       41.703  21.294  56.188  0.00  0.00    +0.036 A 
HETATM    2  C   LIG    1       40.544  21.680  55.527  0.00  0.00    +0.024 A 
HETATM    3  C   LIG    1       40.133  20.997  54.399  0.00  0.00    +0.014 A 
HETATM    4  C   LIG    1       40.874  19.928  53.929  0.00  0.00    +0.055 A 
HETATM    5  C   LIG    1       42.028  19.541  54.584  0.00  0.00    +0.014 A 
HETATM    6  C   LIG    1       42.447  20.224  55.709  0.00  0.00    +0.024 A 
ENDROOT
BRANCH   1  12
HETATM    7  C   LIG    1       41.989  21.565  58.604  0.00  0.00    +0.220 C 
HETATM    8  N   LIG    1       42.514  22.505  59.414  0.00  0.00    -0.322 N 
HETATM    9  H   LIG    1       42.558  22.464  60.382  0.00  0.00    +0.148 HD
HETATM   10  C   LIG    1       42.982  23.541  58.621  0.00  0.00    +0.085 C 
HETATM   11  C   LIG    1       42.741  23.227  57.353  0.00  0.00    +0.093 C 
HETATM   12  N   LIG    1       42.122  21.985  57.331  0.00  0.00    -0.278 N 
BRANCH   7  13
HETATM   13  S   LIG    1       41.280  20.090  59.106  0.00  0.00    -0.137 S 
HETATM   14  H   LIG    1       40.880  19.442  58.538  0.00  0.00    +0.105 HD
ENDBRANCH   7  13
ENDBRANCH   1  12
BRANCH   4  15
HETATM   15  C   LIG    1       40.423  19.185  52.697  0.00  0.00    +0.417 C 
HETATM   16  F   LIG    1       41.491  18.443  52.183  0.00  0.00    -0.166 F 
HETATM   17  F   LIG    1       39.374  18.322  53.032  0.00  0.00    -0.166 F 
HETATM   18  F   LIG    1       39.985  20.101  51.735  0.00  0.00    -0.166 F 
ENDBRANCH   4  15
TORSDOF 3

ENDMDL
MODEL 7
REMARK VINA RESULT:      -5.1      4.099      4.957



ROOT
HETATM    1  C   LIG    1       48.313  29.156  50.318  0.00  0.00    +0.036 A 
HETATM    2  C   LIG    1       48.334  29.852  51.520  0.00  0.00    +0.024 A 
HETATM    3  C   LIG    1       47.155  30.090  52.200  0.00  0.00    +0.014 A 
HETATM    4  C   LIG    1       45.955  29.636  51.684  0.00  0.00    +0.055 A 
HETATM    5  C   LIG    1       45.931  28.943  50.488  0.00  0.00    +0.014 A 
HETATM    6  C   LIG    1       47.105  28.707  49.800  0.00  0.00    +0.024 A 
ENDROOT
BRANCH   1  12
HETATM    7  C   LIG    1       50.410  27.958  49.919  0.00  0.00    +0.220 C 
HETATM    8  N   LIG    1       51.416  28.046  49.026  0.00  0.00    -0.322 N 
HETATM    9  H   LIG    1       52.202  27.478  48.996  0.00  0.00    +0.148 HD
HETATM   10  C   LIG    1       51.131  29.089  48.159  0.00  0.00    +0.085 C 
HETATM   11  C   LIG    1       49.970  29.620  48.526  0.00  0.00    +0.093 C 
HETATM   12  N   LIG    1       49.506  28.913  49.627  0.00  0.00    -0.278 N 
BRANCH   7  13
HETATM   13  S   LIG    1       50.298  26.826  51.198  0.00  0.00    -0.137 S 
HETATM   14  H   LIG    1       49.502  26.407  51.503  0.00  0.00    +0.105 HD
ENDBRANCH   7  13
ENDBRANCH   1  12
BRANCH   4  15
HETATM   15  C   LIG    1       44.670  29.898  52.428  0.00  0.00    +0.417 C 
HETATM   16  F   LIG    1       43.634  29.161  51.844  0.00  0.00    -0.166 F 
HETATM   17  F   LIG    1       44.819  29.514  53.764  0.00  0.00    -0.166 F 
HETATM   18  F   LIG    1       44.365  31.262  52.364  0.00  0.00    -0.166 F 
ENDBRANCH   4  15
TORSDOF 3

ENDMDL
MODEL 8
REMARK VINA RESULT:      -5.0     25.469     26.937



ROOT
HETATM    1  C   LIG    1       62.380  49.974  45.824  0.00  0.00    +0.036 A 
HETATM    2  C   LIG    1       61.533  49.438  46.786  0.00  0.00    +0.024 A 
HETATM    3  C   LIG    1       60.174  49.377  46.550  0.00  0.00    +0.014 A 
HETATM    4  C   LIG    1       59.656  49.849  45.358  0.00  0.00    +0.055 A 
HETATM    5  C   LIG    1       60.496  50.383  44.398  0.00  0.00    +0.014 A 
HETATM    6  C   LIG    1       61.856  50.452  44.630  0.00  0.00    +0.024 A 
ENDROOT
BRANCH   1  12
HETATM    7  C   LIG    1       64.666  49.104  45.711  0.00  0.00    +0.220 C 
HETATM    8  N   LIG    1       65.881  49.530  46.110  0.00  0.00    -0.322 N 
HETATM    9  H   LIG    1       66.719  49.059  45.985  0.00  0.00    +0.148 HD
HETATM   10  C   LIG    1       65.723  50.761  46.728  0.00  0.00    +0.085 C 
HETATM   11  C   LIG    1       64.431  51.069  46.701  0.00  0.00    +0.093 C 
HETATM   12  N   LIG    1       63.759  50.038  46.060  0.00  0.00    -0.278 N 
BRANCH   7  13
HETATM   13  S   LIG    1       64.334  47.635  44.898  0.00  0.00    -0.137 S 
HETATM   14  H   LIG    1       63.489  47.364  44.559  0.00  0.00    +0.105 HD
ENDBRANCH   7  13
ENDBRANCH   1  12
BRANCH   4  15
HETATM   15  C   LIG    1       58.172  49.781  45.105  0.00  0.00    +0.417 C 
HETATM   16  F   LIG    1       57.502  49.556  46.312  0.00  0.00    -0.166 F 
HETATM   17  F   LIG    1       57.738  50.990  44.551  0.00  0.00    -0.166 F 
HETATM   18  F   LIG    1       57.897  48.736  44.217  0.00  0.00    -0.166 F 
ENDBRANCH   4  15
TORSDOF 3

ENDMDL
MODEL 9
REMARK VINA RESULT:      -5.0      2.970      3.846



ROOT
HETATM    1  C   LIG    1       45.928  30.274  52.822  0.00  0.00    +0.036 A 
HETATM    2  C   LIG    1       47.313  30.163  52.825  0.00  0.00    +0.024 A 
HETATM    3  C   LIG    1       47.971  29.720  51.694  0.00  0.00    +0.014 A 
HETATM    4  C   LIG    1       47.253  29.387  50.561  0.00  0.00    +0.055 A 
HETATM    5  C   LIG    1       45.875  29.496  50.554  0.00  0.00    +0.014 A 
HETATM    6  C   LIG    1       45.210  29.933  51.683  0.00  0.00    +0.024 A 
ENDROOT
BRANCH   1  12
HETATM    7  C   LIG    1       45.524  31.854  54.648  0.00  0.00    +0.220 C 
HETATM    8  N   LIG    1       44.664  31.932  55.683  0.00  0.00    -0.322 N 
HETATM    9  H   LIG    1       44.626  32.646  56.338  0.00  0.00    +0.148 HD
HETATM   10  C   LIG    1       43.845  30.815  55.645  0.00  0.00    +0.085 C 
HETATM   11  C   LIG    1       44.207  30.076  54.603  0.00  0.00    +0.093 C 
HETATM   12  N   LIG    1       45.257  30.722  53.966  0.00  0.00    -0.278 N 
BRANCH   7  13
HETATM   13  S   LIG    1       46.739  32.996  54.263  0.00  0.00    -0.137 S 
HETATM   14  H   LIG    1       46.675  33.678  53.604  0.00  0.00    +0.105 HD
ENDBRANCH   7  13
ENDBRANCH   1  12
BRANCH   4  15
HETATM   15  C   LIG    1       47.975  28.903  49.329  0.00  0.00    +0.417 C 
HETATM   16  F   LIG    1       48.708  27.752  49.640  0.00  0.00    -0.166 F 
HETATM   17  F   LIG    1       47.044  28.605  48.329  0.00  0.00    -0.166 F 
HETATM   18  F   LIG    1       48.844  29.901  48.876  0.00  0.00    -0.166 F 
ENDBRANCH   4  15
TORSDOF 3

ENDMDL
