MODEL 1
REMARK VINA RESULT:      -5.2      0.000      0.000



ROOT
HETATM    1  C   LIG    1       61.005  48.549  46.347  0.00  0.00    +0.220 C 
HETATM    2  N   LIG    1       61.814  47.473  46.405  0.00  0.00    -0.322 N 
HETATM    3  H   LIG    1       61.887  46.855  47.149  0.00  0.00    +0.148 HD
HETATM    4  C   LIG    1       62.524  47.405  45.216  0.00  0.00    +0.085 C 
HETATM    5  C   LIG    1       62.147  48.427  44.455  0.00  0.00    +0.093 C 
HETATM    6  N   LIG    1       61.189  49.148  45.153  0.00  0.00    -0.276 N 
ENDROOT
BRANCH   6   7
HETATM    7  C   LIG    1       60.535  50.302  44.701  0.00  0.00    +0.054 A 
HETATM    8  C   LIG    1       61.148  51.542  44.822  0.00  0.00    +0.025 A 
HETATM    9  C   LIG    1       60.502  52.677  44.375  0.00  0.00    +0.002 A 
HETATM   10  C   LIG    1       59.244  52.582  43.809  0.00  0.00    +0.002 A 
HETATM   11  C   LIG    1       58.630  51.349  43.686  0.00  0.00    +0.022 A 
HETATM   12  C   LIG    1       59.274  50.207  44.125  0.00  0.00    +0.062 A 
HETATM   13 CL   LIG    1       58.503  48.659  43.971  0.00  0.00    -0.082 Cl
ENDBRANCH   6   7
BRANCH   1  14
HETATM   14  S   LIG    1       59.926  49.062  47.572  0.00  0.00    -0.137 S 
HETATM   15  H   LIG    1       60.156  49.573  48.340  0.00  0.00    +0.105 HD
ENDBRANCH   1  14
TORSDOF 2

ENDMDL
MODEL 2
REMARK VINA RESULT:      -5.1      1.592      1.983



ROOT
HETATM    1  C   LIG    1       61.564  48.314  45.934  0.00  0.00    +0.220 C 
HETATM    2  N   LIG    1       61.771  47.489  46.979  0.00  0.00    -0.322 N 
HETATM    3  H   LIG    1       62.222  46.631  46.947  0.00  0.00    +0.148 HD
HETATM    4  C   LIG    1       61.226  48.081  48.108  0.00  0.00    +0.085 C 
HETATM    5  C   LIG    1       60.698  49.246  47.744  0.00  0.00    +0.093 C 
HETATM    6  N   LIG    1       60.910  49.404  46.382  0.00  0.00    -0.276 N 
ENDROOT
BRANCH   6   7
HETATM    7  C   LIG    1       60.508  50.500  45.608  0.00  0.00    +0.054 A 
HETATM    8  C   LIG    1       61.446  51.430  45.179  0.00  0.00    +0.025 A 
HETATM    9  C   LIG    1       61.047  52.509  44.414  0.00  0.00    +0.002 A 
HETATM   10  C   LIG    1       59.715  52.665  44.077  0.00  0.00    +0.002 A 
HETATM   11  C   LIG    1       58.779  51.740  44.501  0.00  0.00    +0.022 A 
HETATM   12  C   LIG    1       59.171  50.655  45.261  0.00  0.00    +0.062 A 
HETATM   13 CL   LIG    1       57.995  49.494  45.794  0.00  0.00    -0.082 Cl
ENDBRANCH   6   7
BRANCH   1  14
HETATM   14  S   LIG    1       62.053  48.029  44.318  0.00  0.00    -0.137 S 
HETATM   15  H   LIG    1       61.491  47.742  43.608  0.00  0.00    +0.105 HD
ENDBRANCH   1  14
TORSDOF 2

ENDMDL
MODEL 3
REMARK VINA RESULT:      -5.0      1.579      2.066



ROOT
HETATM    1  C   LIG    1       61.411  48.274  46.426  0.00  0.00    +0.220 C 
HETATM    2  N   LIG    1       62.208  47.188  46.417  0.00  0.00    -0.322 N 
HETATM    3  H   LIG    1       62.356  46.583  47.161  0.00  0.00    +0.148 HD
HETATM    4  C   LIG    1       62.780  47.085  45.158  0.00  0.00    +0.085 C 
HETATM    5  C   LIG    1       62.332  48.098  44.422  0.00  0.00    +0.093 C 
HETATM    6  N   LIG    1       61.467  48.847  45.207  0.00  0.00    -0.276 N 
ENDROOT
BRANCH   6   7
HETATM    7  C   LIG    1       60.781  50.000  44.806  0.00  0.00    +0.054 A 
HETATM    8  C   LIG    1       59.501  49.899  44.277  0.00  0.00    +0.025 A 
HETATM    9  C   LIG    1       58.826  51.038  43.883  0.00  0.00    +0.002 A 
HETATM   10  C   LIG    1       59.423  52.278  44.014  0.00  0.00    +0.002 A 
HETATM   11  C   LIG    1       60.697  52.382  44.542  0.00  0.00    +0.022 A 
HETATM   12  C   LIG    1       61.376  51.248  44.944  0.00  0.00    +0.062 A 
HETATM   13 CL   LIG    1       62.976  51.380  45.606  0.00  0.00    -0.082 Cl
ENDBRANCH   6   7
BRANCH   1  14
HETATM   14  S   LIG    1       60.482  48.826  47.753  0.00  0.00    -0.137 S 
HETATM   15  H   LIG    1       59.766  49.449  47.712  0.00  0.00    +0.105 HD
ENDBRANCH   1  14
TORSDOF 2

ENDMDL
MODEL 4
REMARK VINA RESULT:      -4.9      1.927      3.435



ROOT
HETATM    1  C   LIG    1       59.085  49.687  45.903  0.00  0.00    +0.220 C 
HETATM    2  N   LIG    1       57.797  49.579  45.522  0.00  0.00    -0.322 N 
HETATM    3  H   LIG    1       57.076  49.200  46.049  0.00  0.00    +0.148 HD
HETATM    4  C   LIG    1       57.682  50.104  44.244  0.00  0.00    +0.085 C 
HETATM    5  C   LIG    1       58.886  50.521  43.863  0.00  0.00    +0.093 C 
HETATM    6  N   LIG    1       59.772  50.269  44.900  0.00  0.00    -0.276 N 
ENDROOT
BRANCH   6   7
HETATM    7  C   LIG    1       61.142  50.560  44.902  0.00  0.00    +0.054 A 
HETATM    8  C   LIG    1       61.581  51.841  45.208  0.00  0.00    +0.025 A 
HETATM    9  C   LIG    1       62.933  52.125  45.209  0.00  0.00    +0.002 A 
HETATM   10  C   LIG    1       63.850  51.136  44.905  0.00  0.00    +0.002 A 
HETATM   11  C   LIG    1       63.417  49.859  44.600  0.00  0.00    +0.022 A 
HETATM   12  C   LIG    1       62.066  49.565  44.603  0.00  0.00    +0.062 A 
HETATM   13 CL   LIG    1       61.523  47.961  44.220  0.00  0.00    -0.082 Cl
ENDBRANCH   6   7
BRANCH   1  14
HETATM   14  S   LIG    1       59.734  49.180  47.404  0.00  0.00    -0.137 S 
HETATM   15  H   LIG    1       60.120  48.331  47.586  0.00  0.00    +0.105 HD
ENDBRANCH   1  14
TORSDOF 2

ENDMDL
MODEL 5
REMARK VINA RESULT:      -4.8     24.775     26.032



ROOT
HETATM    1  C   LIG    1       47.147  31.055  53.507  0.00  0.00    +0.220 C 
HETATM    2  N   LIG    1       47.308  32.147  54.277  0.00  0.00    -0.322 N 
HETATM    3  H   LIG    1       48.126  32.412  54.728  0.00  0.00    +0.148 HD
HETATM    4  C   LIG    1       46.101  32.829  54.315  0.00  0.00    +0.085 C 
HETATM    5  C   LIG    1       45.227  32.152  53.577  0.00  0.00    +0.093 C 
HETATM    6  N   LIG    1       45.875  31.040  53.060  0.00  0.00    -0.276 N 
ENDROOT
BRANCH   6   7
HETATM    7  C   LIG    1       45.305  30.068  52.228  0.00  0.00    +0.054 A 
HETATM    8  C   LIG    1       45.664  30.002  50.888  0.00  0.00    +0.025 A 
HETATM    9  C   LIG    1       45.102  29.042  50.069  0.00  0.00    +0.002 A 
HETATM   10  C   LIG    1       44.182  28.147  50.582  0.00  0.00    +0.002 A 
HETATM   11  C   LIG    1       43.822  28.209  51.916  0.00  0.00    +0.022 A 
HETATM   12  C   LIG    1       44.385  29.162  52.742  0.00  0.00    +0.062 A 
HETATM   13 CL   LIG    1       43.933  29.240  54.417  0.00  0.00    -0.082 Cl
ENDBRANCH   6   7
BRANCH   1  14
HETATM   14  S   LIG    1       48.350  29.891  53.150  0.00  0.00    -0.137 S 
HETATM   15  H   LIG    1       49.288  30.013  53.237  0.00  0.00    +0.105 HD
ENDBRANCH   1  14
TORSDOF 2

ENDMDL
MODEL 6
REMARK VINA RESULT:      -4.8     25.174     26.015



ROOT
HETATM    1  C   LIG    1       47.151  29.579  51.531  0.00  0.00    +0.220 C 
HETATM    2  N   LIG    1       47.249  28.983  50.327  0.00  0.00    -0.322 N 
HETATM    3  H   LIG    1       48.067  28.669  49.910  0.00  0.00    +0.148 HD
HETATM    4  C   LIG    1       45.975  28.895  49.787  0.00  0.00    +0.085 C 
HETATM    5  C   LIG    1       45.124  29.432  50.655  0.00  0.00    +0.093 C 
HETATM    6  N   LIG    1       45.852  29.860  51.756  0.00  0.00    -0.276 N 
ENDROOT
BRANCH   6   7
HETATM    7  C   LIG    1       45.330  30.483  52.897  0.00  0.00    +0.054 A 
HETATM    8  C   LIG    1       45.619  31.816  53.156  0.00  0.00    +0.025 A 
HETATM    9  C   LIG    1       45.103  32.428  54.281  0.00  0.00    +0.002 A 
HETATM   10  C   LIG    1       44.300  31.715  55.152  0.00  0.00    +0.002 A 
HETATM   11  C   LIG    1       44.009  30.387  54.897  0.00  0.00    +0.022 A 
HETATM   12  C   LIG    1       44.517  29.770  53.770  0.00  0.00    +0.062 A 
HETATM   13 CL   LIG    1       44.152  28.103  53.451  0.00  0.00    -0.082 Cl
ENDBRANCH   6   7
BRANCH   1  14
HETATM   14  S   LIG    1       48.451  29.916  52.593  0.00  0.00    -0.137 S 
HETATM   15  H   LIG    1       48.862  30.763  52.720  0.00  0.00    +0.105 HD
ENDBRANCH   1  14
TORSDOF 2

ENDMDL
MODEL 7
REMARK VINA RESULT:      -4.8      2.223      2.790



ROOT
HETATM    1  C   LIG    1       62.020  48.125  46.059  0.00  0.00    +0.220 C 
HETATM    2  N   LIG    1       62.604  47.491  47.094  0.00  0.00    -0.322 N 
HETATM    3  H   LIG    1       63.239  46.759  47.030  0.00  0.00    +0.148 HD
HETATM    4  C   LIG    1       62.142  48.066  48.267  0.00  0.00    +0.085 C 
HETATM    5  C   LIG    1       61.289  49.033  47.941  0.00  0.00    +0.093 C 
HETATM    6  N   LIG    1       61.210  49.082  46.556  0.00  0.00    -0.276 N 
ENDROOT
BRANCH   6   7
HETATM    7  C   LIG    1       60.421  49.964  45.807  0.00  0.00    +0.054 A 
HETATM    8  C   LIG    1       59.072  49.697  45.614  0.00  0.00    +0.025 A 
HETATM    9  C   LIG    1       58.296  50.569  44.876  0.00  0.00    +0.002 A 
HETATM   10  C   LIG    1       58.860  51.706  44.327  0.00  0.00    +0.002 A 
HETATM   11  C   LIG    1       60.203  51.975  44.518  0.00  0.00    +0.022 A 
HETATM   12  C   LIG    1       60.984  51.111  45.261  0.00  0.00    +0.062 A 
HETATM   13 CL   LIG    1       62.671  51.449  45.500  0.00  0.00    -0.082 Cl
ENDBRANCH   6   7
BRANCH   1  14
HETATM   14  S   LIG    1       62.268  47.781  44.401  0.00  0.00    -0.137 S 
HETATM   15  H   LIG    1       63.109  47.720  43.964  0.00  0.00    +0.105 HD
ENDBRANCH   1  14
TORSDOF 2

ENDMDL
MODEL 8
REMARK VINA RESULT:      -4.7     24.839     26.149



ROOT
HETATM    1  C   LIG    1       47.095  30.690  54.609  0.00  0.00    +0.220 C 
HETATM    2  N   LIG    1       47.541  31.886  55.035  0.00  0.00    -0.322 N 
HETATM    3  H   LIG    1       48.275  32.035  55.653  0.00  0.00    +0.148 HD
HETATM    4  C   LIG    1       46.768  32.871  54.439  0.00  0.00    +0.085 C 
HETATM    5  C   LIG    1       45.869  32.272  53.665  0.00  0.00    +0.093 C 
HETATM    6  N   LIG    1       46.069  30.902  53.760  0.00  0.00    -0.276 N 
ENDROOT
BRANCH   6   7
HETATM    7  C   LIG    1       45.330  29.914  53.097  0.00  0.00    +0.054 A 
HETATM    8  C   LIG    1       44.204  29.367  53.699  0.00  0.00    +0.025 A 
HETATM    9  C   LIG    1       43.476  28.393  53.043  0.00  0.00    +0.002 A 
HETATM   10  C   LIG    1       43.868  27.961  51.790  0.00  0.00    +0.002 A 
HETATM   11  C   LIG    1       44.988  28.503  51.188  0.00  0.00    +0.022 A 
HETATM   12  C   LIG    1       45.718  29.482  51.834  0.00  0.00    +0.062 A 
HETATM   13 CL   LIG    1       47.125  30.162  51.078  0.00  0.00    -0.082 Cl
ENDBRANCH   6   7
BRANCH   1  14
HETATM   14  S   LIG    1       47.725  29.163  55.060  0.00  0.00    -0.137 S 
HETATM   15  H   LIG    1       48.581  29.004  55.439  0.00  0.00    +0.105 HD
ENDBRANCH   1  14
TORSDOF 2

ENDMDL
MODEL 9
REMARK VINA RESULT:      -4.7      2.395      3.262



ROOT
HETATM    1  C   LIG    1       62.741  49.517  44.754  0.00  0.00    +0.220 C 
HETATM    2  N   LIG    1       63.932  50.144  44.715  0.00  0.00    -0.322 N 
HETATM    3  H   LIG    1       64.785  49.735  44.498  0.00  0.00    +0.148 HD
HETATM    4  C   LIG    1       63.727  51.476  45.038  0.00  0.00    +0.085 C 
HETATM    5  C   LIG    1       62.429  51.646  45.270  0.00  0.00    +0.093 C 
HETATM    6  N   LIG    1       61.800  50.423  45.089  0.00  0.00    -0.276 N 
ENDROOT
BRANCH   6   7
HETATM    7  C   LIG    1       60.430  50.171  45.236  0.00  0.00    +0.054 A 
HETATM    8  C   LIG    1       59.553  50.467  44.200  0.00  0.00    +0.025 A 
HETATM    9  C   LIG    1       58.203  50.218  44.348  0.00  0.00    +0.002 A 
HETATM   10  C   LIG    1       57.722  49.675  45.525  0.00  0.00    +0.002 A 
HETATM   11  C   LIG    1       58.592  49.378  46.558  0.00  0.00    +0.022 A 
HETATM   12  C   LIG    1       59.945  49.619  46.415  0.00  0.00    +0.062 A 
HETATM   13 CL   LIG    1       61.037  49.247  47.713  0.00  0.00    -0.082 Cl
ENDBRANCH   6   7
BRANCH   1  14
HETATM   14  S   LIG    1       62.467  47.858  44.429  0.00  0.00    -0.137 S 
HETATM   15  H   LIG    1       62.982  47.133  44.763  0.00  0.00    +0.105 HD
ENDBRANCH   1  14
TORSDOF 2

ENDMDL
