MODEL 1
REMARK VINA RESULT:      -5.6      0.000      0.000



ROOT
HETATM    1  C   LIG    1       47.470  31.261  53.912  0.00  0.00    +0.220 C 
HETATM    2  N   LIG    1       47.724  32.433  54.526  0.00  0.00    -0.322 N 
HETATM    3  H   LIG    1       48.579  32.711  54.891  0.00  0.00    +0.148 HD
HETATM    4  C   LIG    1       46.551  33.172  54.545  0.00  0.00    +0.085 C 
HETATM    5  C   LIG    1       45.605  32.453  53.951  0.00  0.00    +0.093 C 
HETATM    6  N   LIG    1       46.174  31.253  53.544  0.00  0.00    -0.278 N 
ENDROOT
BRANCH   6   7
HETATM    7  C   LIG    1       45.513  30.214  52.878  0.00  0.00    +0.037 A 
HETATM    8  C   LIG    1       44.774  29.284  53.598  0.00  0.00    +0.025 A 
HETATM    9  C   LIG    1       44.123  28.261  52.939  0.00  0.00    +0.023 A 
HETATM   10  C   LIG    1       44.205  28.159  51.561  0.00  0.00    +0.059 A 
HETATM   11 CL   LIG    1       43.385  26.870  50.736  0.00  0.00    -0.082 Cl
HETATM   12  C   LIG    1       44.942  29.083  50.840  0.00  0.00    +0.061 A 
HETATM   13 CL   LIG    1       45.044  28.953  49.112  0.00  0.00    -0.082 Cl
HETATM   14  C   LIG    1       45.591  30.113  51.495  0.00  0.00    +0.045 A 
ENDBRANCH   6   7
BRANCH   1  15
HETATM   15  S   LIG    1       48.599  30.003  53.639  0.00  0.00    -0.137 S 
HETATM   16  H   LIG    1       48.706  29.224  54.172  0.00  0.00    +0.105 HD
ENDBRANCH   1  15
TORSDOF 2

ENDMDL
MODEL 2
REMARK VINA RESULT:      -5.5      3.666      5.368



ROOT
HETATM    1  C   LIG    1       44.271  28.208  51.053  0.00  0.00    +0.220 C 
HETATM    2  N   LIG    1       43.376  27.209  50.933  0.00  0.00    -0.322 N 
HETATM    3  H   LIG    1       43.236  26.661  50.145  0.00  0.00    +0.148 HD
HETATM    4  C   LIG    1       42.688  27.100  52.133  0.00  0.00    +0.085 C 
HETATM    5  C   LIG    1       43.166  28.023  52.962  0.00  0.00    +0.093 C 
HETATM    6  N   LIG    1       44.164  28.720  52.295  0.00  0.00    -0.278 N 
ENDROOT
BRANCH   6   7
HETATM    7  C   LIG    1       44.920  29.776  52.819  0.00  0.00    +0.037 A 
HETATM    8  C   LIG    1       44.914  31.015  52.191  0.00  0.00    +0.025 A 
HETATM    9  C   LIG    1       45.660  32.055  52.708  0.00  0.00    +0.023 A 
HETATM   10  C   LIG    1       46.415  31.865  53.853  0.00  0.00    +0.059 A 
HETATM   11 CL   LIG    1       47.351  33.175  54.501  0.00  0.00    -0.082 Cl
HETATM   12  C   LIG    1       46.424  30.632  54.481  0.00  0.00    +0.061 A 
HETATM   13 CL   LIG    1       47.371  30.396  55.917  0.00  0.00    -0.082 Cl
HETATM   14  C   LIG    1       45.675  29.588  53.970  0.00  0.00    +0.045 A 
ENDBRANCH   6   7
BRANCH   1  15
HETATM   15  S   LIG    1       45.361  28.732  49.842  0.00  0.00    -0.137 S 
HETATM   16  H   LIG    1       45.245  29.485  49.275  0.00  0.00    +0.105 HD
ENDBRANCH   1  15
TORSDOF 2

ENDMDL
MODEL 3
REMARK VINA RESULT:      -5.2      9.890     10.697



ROOT
HETATM    1  C   LIG    1       41.997  21.509  58.650  0.00  0.00    +0.220 C 
HETATM    2  N   LIG    1       42.446  22.478  59.472  0.00  0.00    -0.322 N 
HETATM    3  H   LIG    1       42.443  22.449  60.441  0.00  0.00    +0.148 HD
HETATM    4  C   LIG    1       42.914  23.523  58.689  0.00  0.00    +0.085 C 
HETATM    5  C   LIG    1       42.747  23.186  57.414  0.00  0.00    +0.093 C 
HETATM    6  N   LIG    1       42.178  21.920  57.380  0.00  0.00    -0.278 N 
ENDROOT
BRANCH   6   7
HETATM    7  C   LIG    1       41.841  21.201  56.226  0.00  0.00    +0.037 A 
HETATM    8  C   LIG    1       42.647  20.155  55.798  0.00  0.00    +0.025 A 
HETATM    9  C   LIG    1       42.314  19.447  54.661  0.00  0.00    +0.023 A 
HETATM   10  C   LIG    1       41.177  19.778  53.946  0.00  0.00    +0.059 A 
HETATM   11 CL   LIG    1       40.760  18.885  52.516  0.00  0.00    -0.082 Cl
HETATM   12  C   LIG    1       40.370  20.821  54.369  0.00  0.00    +0.061 A 
HETATM   13 CL   LIG    1       38.943  21.234  53.470  0.00  0.00    -0.082 Cl
HETATM   14  C   LIG    1       40.697  21.530  55.510  0.00  0.00    +0.045 A 
ENDBRANCH   6   7
BRANCH   1  15
HETATM   15  S   LIG    1       41.322  20.013  59.135  0.00  0.00    -0.137 S 
HETATM   16  H   LIG    1       41.551  19.159  58.787  0.00  0.00    +0.105 HD
ENDBRANCH   1  15
TORSDOF 2

ENDMDL
MODEL 4
REMARK VINA RESULT:      -5.2      1.080      1.994



ROOT
HETATM    1  C   LIG    1       46.678  30.871  54.636  0.00  0.00    +0.220 C 
HETATM    2  N   LIG    1       46.846  32.056  55.255  0.00  0.00    -0.322 N 
HETATM    3  H   LIG    1       47.497  32.249  55.947  0.00  0.00    +0.148 HD
HETATM    4  C   LIG    1       45.924  32.949  54.731  0.00  0.00    +0.085 C 
HETATM    5  C   LIG    1       45.212  32.308  53.809  0.00  0.00    +0.093 C 
HETATM    6  N   LIG    1       45.683  31.004  53.738  0.00  0.00    -0.278 N 
ENDROOT
BRANCH   6   7
HETATM    7  C   LIG    1       45.200  30.001  52.888  0.00  0.00    +0.037 A 
HETATM    8  C   LIG    1       45.729  29.856  51.612  0.00  0.00    +0.025 A 
HETATM    9  C   LIG    1       45.252  28.867  50.776  0.00  0.00    +0.023 A 
HETATM   10  C   LIG    1       44.248  28.017  51.207  0.00  0.00    +0.059 A 
HETATM   11 CL   LIG    1       43.652  26.774  50.153  0.00  0.00    -0.082 Cl
HETATM   12  C   LIG    1       43.719  28.159  52.478  0.00  0.00    +0.061 A 
HETATM   13 CL   LIG    1       42.460  27.091  53.018  0.00  0.00    -0.082 Cl
HETATM   14  C   LIG    1       44.196  29.145  53.322  0.00  0.00    +0.045 A 
ENDBRANCH   6   7
BRANCH   1  15
HETATM   15  S   LIG    1       47.580  29.446  54.932  0.00  0.00    -0.137 S 
HETATM   16  H   LIG    1       48.503  29.406  55.152  0.00  0.00    +0.105 HD
ENDBRANCH   1  15
TORSDOF 2

ENDMDL
MODEL 5
REMARK VINA RESULT:      -5.2     25.379     26.109



ROOT
HETATM    1  C   LIG    1       58.766  51.014  44.607  0.00  0.00    +0.220 C 
HETATM    2  N   LIG    1       58.413  52.242  44.180  0.00  0.00    -0.322 N 
HETATM    3  H   LIG    1       57.516  52.526  43.944  0.00  0.00    +0.148 HD
HETATM    4  C   LIG    1       59.554  53.028  44.136  0.00  0.00    +0.085 C 
HETATM    5  C   LIG    1       60.580  52.281  44.533  0.00  0.00    +0.093 C 
HETATM    6  N   LIG    1       60.094  51.016  44.836  0.00  0.00    -0.278 N 
ENDROOT
BRANCH   6   7
HETATM    7  C   LIG    1       60.853  49.931  45.291  0.00  0.00    +0.037 A 
HETATM    8  C   LIG    1       61.492  49.098  44.381  0.00  0.00    +0.025 A 
HETATM    9  C   LIG    1       62.240  48.029  44.831  0.00  0.00    +0.023 A 
HETATM   10  C   LIG    1       62.355  47.784  46.188  0.00  0.00    +0.059 A 
HETATM   11 CL   LIG    1       63.297  46.439  46.751  0.00  0.00    -0.082 Cl
HETATM   12  C   LIG    1       61.719  48.612  47.098  0.00  0.00    +0.061 A 
HETATM   13 CL   LIG    1       61.865  48.304  48.801  0.00  0.00    -0.082 Cl
HETATM   14  C   LIG    1       60.973  49.687  46.653  0.00  0.00    +0.045 A 
ENDBRANCH   6   7
BRANCH   1  15
HETATM   15  S   LIG    1       57.711  49.684  44.829  0.00  0.00    -0.137 S 
HETATM   16  H   LIG    1       57.607  48.950  44.235  0.00  0.00    +0.105 HD
ENDBRANCH   1  15
TORSDOF 2

ENDMDL
MODEL 6
REMARK VINA RESULT:      -5.1     25.366     26.080



ROOT
HETATM    1  C   LIG    1       58.786  50.997  44.737  0.00  0.00    +0.220 C 
HETATM    2  N   LIG    1       58.430  52.227  44.318  0.00  0.00    -0.322 N 
HETATM    3  H   LIG    1       57.528  52.521  44.117  0.00  0.00    +0.148 HD
HETATM    4  C   LIG    1       59.578  52.999  44.223  0.00  0.00    +0.085 C 
HETATM    5  C   LIG    1       60.610  52.241  44.582  0.00  0.00    +0.093 C 
HETATM    6  N   LIG    1       60.122  50.984  44.912  0.00  0.00    -0.278 N 
ENDROOT
BRANCH   6   7
HETATM    7  C   LIG    1       60.886  49.892  45.341  0.00  0.00    +0.037 A 
HETATM    8  C   LIG    1       61.035  49.638  46.699  0.00  0.00    +0.025 A 
HETATM    9  C   LIG    1       61.787  48.561  47.121  0.00  0.00    +0.023 A 
HETATM   10  C   LIG    1       62.395  47.732  46.193  0.00  0.00    +0.059 A 
HETATM   11 CL   LIG    1       63.340  46.378  46.728  0.00  0.00    -0.082 Cl
HETATM   12  C   LIG    1       62.249  47.982  44.840  0.00  0.00    +0.061 A 
HETATM   13 CL   LIG    1       63.010  46.941  43.677  0.00  0.00    -0.082 Cl
HETATM   14  C   LIG    1       61.491  49.057  44.411  0.00  0.00    +0.045 A 
ENDBRANCH   6   7
BRANCH   1  15
HETATM   15  S   LIG    1       57.725  49.682  45.009  0.00  0.00    -0.137 S 
HETATM   16  H   LIG    1       57.174  49.265  44.357  0.00  0.00    +0.105 HD
ENDBRANCH   1  15
TORSDOF 2

ENDMDL
MODEL 7
REMARK VINA RESULT:      -5.0     24.901     25.880



ROOT
HETATM    1  C   LIG    1       62.479  47.791  46.600  0.00  0.00    +0.220 C 
HETATM    2  N   LIG    1       62.992  47.225  47.709  0.00  0.00    -0.322 N 
HETATM    3  H   LIG    1       63.551  46.433  47.737  0.00  0.00    +0.148 HD
HETATM    4  C   LIG    1       62.581  47.971  48.803  0.00  0.00    +0.085 C 
HETATM    5  C   LIG    1       61.831  48.973  48.356  0.00  0.00    +0.093 C 
HETATM    6  N   LIG    1       61.766  48.872  46.973  0.00  0.00    -0.278 N 
ENDROOT
BRANCH   6   7
HETATM    7  C   LIG    1       61.073  49.737  46.117  0.00  0.00    +0.037 A 
HETATM    8  C   LIG    1       61.692  50.883  45.635  0.00  0.00    +0.025 A 
HETATM    9  C   LIG    1       61.007  51.734  44.791  0.00  0.00    +0.023 A 
HETATM   10  C   LIG    1       59.704  51.447  44.423  0.00  0.00    +0.059 A 
HETATM   11 CL   LIG    1       58.846  52.520  43.361  0.00  0.00    -0.082 Cl
HETATM   12  C   LIG    1       59.084  50.306  44.901  0.00  0.00    +0.061 A 
HETATM   13 CL   LIG    1       57.450  49.947  44.437  0.00  0.00    -0.082 Cl
HETATM   14  C   LIG    1       59.767  49.447  45.743  0.00  0.00    +0.045 A 
ENDBRANCH   6   7
BRANCH   1  15
HETATM   15  S   LIG    1       62.702  47.240  44.994  0.00  0.00    -0.137 S 
HETATM   16  H   LIG    1       62.262  46.500  44.593  0.00  0.00    +0.105 HD
ENDBRANCH   1  15
TORSDOF 2

ENDMDL
MODEL 8
REMARK VINA RESULT:      -4.9      3.556      5.268



ROOT
HETATM    1  C   LIG    1       43.959  28.450  51.577  0.00  0.00    +0.220 C 
HETATM    2  N   LIG    1       43.486  27.819  50.484  0.00  0.00    -0.322 N 
HETATM    3  H   LIG    1       42.796  27.137  50.474  0.00  0.00    +0.148 HD
HETATM    4  C   LIG    1       44.157  28.315  49.376  0.00  0.00    +0.085 C 
HETATM    5  C   LIG    1       45.022  29.232  49.799  0.00  0.00    +0.093 C 
HETATM    6  N   LIG    1       44.900  29.327  51.179  0.00  0.00    -0.278 N 
ENDROOT
BRANCH   6   7
HETATM    7  C   LIG    1       45.635  30.181  52.012  0.00  0.00    +0.037 A 
HETATM    8  C   LIG    1       45.044  31.324  52.533  0.00  0.00    +0.025 A 
HETATM    9  C   LIG    1       45.769  32.163  53.355  0.00  0.00    +0.023 A 
HETATM   10  C   LIG    1       47.086  31.868  53.660  0.00  0.00    +0.059 A 
HETATM   11 CL   LIG    1       47.995  32.926  54.693  0.00  0.00    -0.082 Cl
HETATM   12  C   LIG    1       47.680  30.729  53.142  0.00  0.00    +0.061 A 
HETATM   13 CL   LIG    1       49.332  30.360  53.527  0.00  0.00    -0.082 Cl
HETATM   14  C   LIG    1       46.956  29.882  52.323  0.00  0.00    +0.045 A 
ENDBRANCH   6   7
BRANCH   1  15
HETATM   15  S   LIG    1       43.447  28.188  53.189  0.00  0.00    -0.137 S 
HETATM   16  H   LIG    1       43.200  27.352  53.567  0.00  0.00    +0.105 HD
ENDBRANCH   1  15
TORSDOF 2

ENDMDL
MODEL 9
REMARK VINA RESULT:      -4.9     25.019     26.912



ROOT
HETATM    1  C   LIG    1       59.036  49.591  45.976  0.00  0.00    +0.220 C 
HETATM    2  N   LIG    1       57.732  49.486  45.653  0.00  0.00    -0.322 N 
HETATM    3  H   LIG    1       57.034  49.117  46.216  0.00  0.00    +0.148 HD
HETATM    4  C   LIG    1       57.563  49.998  44.375  0.00  0.00    +0.085 C 
HETATM    5  C   LIG    1       58.751  50.405  43.938  0.00  0.00    +0.093 C 
HETATM    6  N   LIG    1       59.680  50.158  44.938  0.00  0.00    -0.278 N 
ENDROOT
BRANCH   6   7
HETATM    7  C   LIG    1       61.051  50.442  44.876  0.00  0.00    +0.037 A 
HETATM    8  C   LIG    1       61.498  51.749  45.016  0.00  0.00    +0.025 A 
HETATM    9  C   LIG    1       62.849  52.027  44.955  0.00  0.00    +0.023 A 
HETATM   10  C   LIG    1       63.759  51.004  44.753  0.00  0.00    +0.059 A 
HETATM   11 CL   LIG    1       65.457  51.357  44.677  0.00  0.00    -0.082 Cl
HETATM   12  C   LIG    1       63.317  49.700  44.613  0.00  0.00    +0.061 A 
HETATM   13 CL   LIG    1       64.461  48.418  44.361  0.00  0.00    -0.082 Cl
HETATM   14  C   LIG    1       61.966  49.415  44.679  0.00  0.00    +0.045 A 
ENDBRANCH   6   7
BRANCH   1  15
HETATM   15  S   LIG    1       59.748  49.097  47.453  0.00  0.00    -0.137 S 
HETATM   16  H   LIG    1       60.676  49.112  47.656  0.00  0.00    +0.105 HD
ENDBRANCH   1  15
TORSDOF 2

ENDMDL
