MODEL 1
REMARK VINA RESULT:      -5.6      0.000      0.000



ROOT
HETATM    1  C   LIG    1       59.594  53.214  43.611  0.00  0.00    +0.044 C 
HETATM    2  C   LIG    1       60.171  52.119  44.470  0.00  0.00    -0.050 A 
HETATM    3  C   LIG    1       59.333  51.190  45.059  0.00  0.00    +0.008 A 
HETATM    4  C   LIG    1       59.859  50.184  45.847  0.00  0.00    -0.029 A 
HETATM    5  C   LIG    1       58.945  49.172  46.487  0.00  0.00    +0.046 C 
HETATM    6  C   LIG    1       61.232  50.106  46.046  0.00  0.00    +0.042 A 
HETATM    7  C   LIG    1       62.070  51.040  45.453  0.00  0.00    -0.029 A 
HETATM    8  C   LIG    1       63.560  50.961  45.667  0.00  0.00    +0.046 C 
HETATM    9  C   LIG    1       61.539  52.041  44.663  0.00  0.00    +0.008 A 
ENDROOT
BRANCH   6  10
HETATM   10  N   LIG    1       61.768  49.088  46.844  0.00  0.00    -0.277 N 
HETATM   11  C   LIG    1       61.876  49.108  48.227  0.00  0.00    +0.093 C 
HETATM   12  C   LIG    1       62.435  47.964  48.609  0.00  0.00    +0.085 C 
HETATM   13  N   LIG    1       62.684  47.210  47.472  0.00  0.00    -0.322 N 
HETATM   14  H   LIG    1       63.088  46.329  47.450  0.00  0.00    +0.148 HD
HETATM   15  C   LIG    1       62.264  47.915  46.403  0.00  0.00    +0.220 C 
BRANCH  15  16
HETATM   16  S   LIG    1       62.353  47.411  44.770  0.00  0.00    -0.137 S 
HETATM   17  H   LIG    1       63.139  47.139  44.312  0.00  0.00    +0.105 HD
ENDBRANCH  15  16
ENDBRANCH   6  10
TORSDOF 2

ENDMDL
MODEL 2
REMARK VINA RESULT:      -5.2      0.819      2.362



ROOT
HETATM    1  C   LIG    1       60.155  52.685  43.865  0.00  0.00    +0.044 C 
HETATM    2  C   LIG    1       60.703  51.658  44.822  0.00  0.00    -0.050 A 
HETATM    3  C   LIG    1       62.064  51.587  45.053  0.00  0.00    +0.008 A 
HETATM    4  C   LIG    1       62.569  50.647  45.931  0.00  0.00    -0.029 A 
HETATM    5  C   LIG    1       64.053  50.571  46.182  0.00  0.00    +0.046 C 
HETATM    6  C   LIG    1       61.708  49.773  46.582  0.00  0.00    +0.042 A 
HETATM    7  C   LIG    1       60.342  49.847  46.348  0.00  0.00    -0.029 A 
HETATM    8  C   LIG    1       59.403  48.901  47.050  0.00  0.00    +0.046 C 
HETATM    9  C   LIG    1       59.842  50.792  45.473  0.00  0.00    +0.008 A 
ENDROOT
BRANCH   6  10
HETATM   10  N   LIG    1       62.217  48.820  47.472  0.00  0.00    -0.277 N 
HETATM   11  C   LIG    1       62.290  48.949  48.851  0.00  0.00    +0.093 C 
HETATM   12  C   LIG    1       62.831  47.837  49.337  0.00  0.00    +0.085 C 
HETATM   13  N   LIG    1       63.104  46.993  48.271  0.00  0.00    -0.322 N 
HETATM   14  H   LIG    1       63.501  46.111  48.330  0.00  0.00    +0.148 HD
HETATM   15  C   LIG    1       62.716  47.612  47.139  0.00  0.00    +0.220 C 
BRANCH  15  16
HETATM   16  S   LIG    1       62.842  46.979  45.554  0.00  0.00    -0.137 S 
HETATM   17  H   LIG    1       62.125  46.644  45.028  0.00  0.00    +0.105 HD
ENDBRANCH  15  16
ENDBRANCH   6  10
TORSDOF 2

ENDMDL
MODEL 3
REMARK VINA RESULT:      -5.0      1.839      2.182



ROOT
HETATM    1  C   LIG    1       59.069  51.855  44.629  0.00  0.00    +0.044 C 
HETATM    2  C   LIG    1       60.035  50.849  45.198  0.00  0.00    -0.050 A 
HETATM    3  C   LIG    1       59.656  50.051  46.262  0.00  0.00    +0.008 A 
HETATM    4  C   LIG    1       60.541  49.128  46.785  0.00  0.00    -0.029 A 
HETATM    5  C   LIG    1       60.126  48.260  47.944  0.00  0.00    +0.046 C 
HETATM    6  C   LIG    1       61.812  48.999  46.239  0.00  0.00    +0.042 A 
HETATM    7  C   LIG    1       62.189  49.801  45.171  0.00  0.00    -0.029 A 
HETATM    8  C   LIG    1       63.567  49.666  44.576  0.00  0.00    +0.046 C 
HETATM    9  C   LIG    1       61.299  50.720  44.650  0.00  0.00    +0.008 A 
ENDROOT
BRANCH   6  10
HETATM   10  N   LIG    1       62.710  48.064  46.767  0.00  0.00    -0.277 N 
HETATM   11  C   LIG    1       62.886  46.762  46.321  0.00  0.00    +0.093 C 
HETATM   12  C   LIG    1       63.825  46.196  47.074  0.00  0.00    +0.085 C 
HETATM   13  N   LIG    1       64.251  47.134  48.001  0.00  0.00    -0.322 N 
HETATM   14  H   LIG    1       64.930  46.997  48.679  0.00  0.00    +0.148 HD
HETATM   15  C   LIG    1       63.559  48.272  47.793  0.00  0.00    +0.220 C 
BRANCH  15  16
HETATM   16  S   LIG    1       63.724  49.725  48.682  0.00  0.00    -0.137 S 
HETATM   17  H   LIG    1       63.206  49.980  49.436  0.00  0.00    +0.105 HD
ENDBRANCH  15  16
ENDBRANCH   6  10
TORSDOF 2

ENDMDL
MODEL 4
REMARK VINA RESULT:      -4.7     19.547     20.396



ROOT
HETATM    1  C   LIG    1       56.781  60.298  61.946  0.00  0.00    +0.044 C 
HETATM    2  C   LIG    1       55.736  60.937  61.069  0.00  0.00    -0.050 A 
HETATM    3  C   LIG    1       54.537  60.287  60.837  0.00  0.00    +0.008 A 
HETATM    4  C   LIG    1       53.577  60.871  60.034  0.00  0.00    -0.029 A 
HETATM    5  C   LIG    1       52.272  60.162  59.782  0.00  0.00    +0.046 C 
HETATM    6  C   LIG    1       53.816  62.113  59.459  0.00  0.00    +0.042 A 
HETATM    7  C   LIG    1       55.020  62.763  59.694  0.00  0.00    -0.029 A 
HETATM    8  C   LIG    1       55.285  64.110  59.072  0.00  0.00    +0.046 C 
HETATM    9  C   LIG    1       55.975  62.176  60.502  0.00  0.00    +0.008 A 
ENDROOT
BRANCH   6  10
HETATM   10  N   LIG    1       52.845  62.707  58.644  0.00  0.00    -0.277 N 
HETATM   11  C   LIG    1       52.759  62.594  57.264  0.00  0.00    +0.093 C 
HETATM   12  C   LIG    1       51.706  63.300  56.862  0.00  0.00    +0.085 C 
HETATM   13  N   LIG    1       51.117  63.864  57.983  0.00  0.00    -0.322 N 
HETATM   14  H   LIG    1       50.329  64.430  57.989  0.00  0.00    +0.148 HD
HETATM   15  C   LIG    1       51.827  63.485  59.064  0.00  0.00    +0.220 C 
BRANCH  15  16
HETATM   16  S   LIG    1       51.498  63.921  60.686  0.00  0.00    -0.137 S 
HETATM   17  H   LIG    1       52.143  64.038  61.374  0.00  0.00    +0.105 HD
ENDBRANCH  15  16
ENDBRANCH   6  10
TORSDOF 2

ENDMDL
MODEL 5
REMARK VINA RESULT:      -4.6     35.499     37.420



ROOT
HETATM    1  C   LIG    1       26.512  29.283  41.277  0.00  0.00    +0.044 C 
HETATM    2  C   LIG    1       28.007  29.242  41.094  0.00  0.00    -0.050 A 
HETATM    3  C   LIG    1       28.544  29.039  39.836  0.00  0.00    +0.008 A 
HETATM    4  C   LIG    1       29.915  29.001  39.667  0.00  0.00    -0.029 A 
HETATM    5  C   LIG    1       30.499  28.780  38.296  0.00  0.00    +0.046 C 
HETATM    6  C   LIG    1       30.754  29.168  40.761  0.00  0.00    +0.042 A 
HETATM    7  C   LIG    1       30.211  29.372  42.023  0.00  0.00    -0.029 A 
HETATM    8  C   LIG    1       31.117  29.553  43.214  0.00  0.00    +0.046 C 
HETATM    9  C   LIG    1       28.840  29.413  42.186  0.00  0.00    +0.008 A 
ENDROOT
BRANCH   6  10
HETATM   10  N   LIG    1       32.143  29.131  40.592  0.00  0.00    -0.277 N 
HETATM   11  C   LIG    1       32.963  30.220  40.336  0.00  0.00    +0.093 C 
HETATM   12  C   LIG    1       34.213  29.777  40.242  0.00  0.00    +0.085 C 
HETATM   13  N   LIG    1       34.195  28.405  40.438  0.00  0.00    -0.322 N 
HETATM   14  H   LIG    1       34.967  27.818  40.424  0.00  0.00    +0.148 HD
HETATM   15  C   LIG    1       32.919  28.030  40.655  0.00  0.00    +0.220 C 
BRANCH  15  16
HETATM   16  S   LIG    1       32.378  26.434  40.952  0.00  0.00    -0.137 S 
HETATM   17  H   LIG    1       32.793  25.802  41.527  0.00  0.00    +0.105 HD
ENDBRANCH  15  16
ENDBRANCH   6  10
TORSDOF 2

ENDMDL
MODEL 6
REMARK VINA RESULT:      -4.6     35.509     37.433



ROOT
HETATM    1  C   LIG    1       26.497  29.329  41.447  0.00  0.00    +0.044 C 
HETATM    2  C   LIG    1       27.987  29.278  41.230  0.00  0.00    -0.050 A 
HETATM    3  C   LIG    1       28.847  29.446  42.299  0.00  0.00    +0.008 A 
HETATM    4  C   LIG    1       30.214  29.399  42.102  0.00  0.00    -0.029 A 
HETATM    5  C   LIG    1       31.150  29.582  43.268  0.00  0.00    +0.046 C 
HETATM    6  C   LIG    1       30.724  29.181  40.829  0.00  0.00    +0.042 A 
HETATM    7  C   LIG    1       29.857  29.012  39.758  0.00  0.00    -0.029 A 
HETATM    8  C   LIG    1       30.405  28.777  38.373  0.00  0.00    +0.046 C 
HETATM    9  C   LIG    1       28.492  29.056  39.961  0.00  0.00    +0.008 A 
ENDROOT
BRANCH   6  10
HETATM   10  N   LIG    1       32.108  29.133  40.626  0.00  0.00    -0.277 N 
HETATM   11  C   LIG    1       32.932  30.217  40.361  0.00  0.00    +0.093 C 
HETATM   12  C   LIG    1       34.175  29.764  40.233  0.00  0.00    +0.085 C 
HETATM   13  N   LIG    1       34.149  28.390  40.416  0.00  0.00    -0.322 N 
HETATM   14  H   LIG    1       34.915  27.796  40.379  0.00  0.00    +0.148 HD
HETATM   15  C   LIG    1       32.875  28.025  40.661  0.00  0.00    +0.220 C 
BRANCH  15  16
HETATM   16  S   LIG    1       32.326  26.430  40.955  0.00  0.00    -0.137 S 
HETATM   17  H   LIG    1       32.501  25.915  41.734  0.00  0.00    +0.105 HD
ENDBRANCH  15  16
ENDBRANCH   6  10
TORSDOF 2

ENDMDL
MODEL 7
REMARK VINA RESULT:      -4.6     19.736     20.633



ROOT
HETATM    1  C   LIG    1       56.017  58.953  60.221  0.00  0.00    +0.044 C 
HETATM    2  C   LIG    1       55.067  60.109  60.040  0.00  0.00    -0.050 A 
HETATM    3  C   LIG    1       55.555  61.359  59.707  0.00  0.00    +0.008 A 
HETATM    4  C   LIG    1       54.686  62.420  59.540  0.00  0.00    -0.029 A 
HETATM    5  C   LIG    1       55.219  63.781  59.178  0.00  0.00    +0.046 C 
HETATM    6  C   LIG    1       53.320  62.230  59.706  0.00  0.00    +0.042 A 
HETATM    7  C   LIG    1       52.833  60.973  60.039  0.00  0.00    -0.029 A 
HETATM    8  C   LIG    1       51.352  60.761  60.220  0.00  0.00    +0.046 C 
HETATM    9  C   LIG    1       53.706  59.915  60.200  0.00  0.00    +0.008 A 
ENDROOT
BRANCH   6  10
HETATM   10  N   LIG    1       52.437  63.303  59.537  0.00  0.00    -0.277 N 
HETATM   11  C   LIG    1       51.980  64.148  60.537  0.00  0.00    +0.093 C 
HETATM   12  C   LIG    1       51.162  65.035  59.981  0.00  0.00    +0.085 C 
HETATM   13  N   LIG    1       51.094  64.760  58.623  0.00  0.00    -0.322 N 
HETATM   14  H   LIG    1       50.572  65.249  57.969  0.00  0.00    +0.148 HD
HETATM   15  C   LIG    1       51.886  63.700  58.372  0.00  0.00    +0.220 C 
BRANCH  15  16
HETATM   16  S   LIG    1       52.141  62.976  56.841  0.00  0.00    -0.137 S 
HETATM   17  H   LIG    1       51.586  63.079  56.077  0.00  0.00    +0.105 HD
ENDBRANCH  15  16
ENDBRANCH   6  10
TORSDOF 2

ENDMDL
MODEL 8
REMARK VINA RESULT:      -4.6     33.189     34.654



ROOT
HETATM    1  C   LIG    1       39.420  56.688  67.742  0.00  0.00    +0.044 C 
HETATM    2  C   LIG    1       38.204  55.877  68.108  0.00  0.00    -0.050 A 
HETATM    3  C   LIG    1       37.227  56.424  68.920  0.00  0.00    +0.008 A 
HETATM    4  C   LIG    1       36.111  55.682  69.256  0.00  0.00    -0.029 A 
HETATM    5  C   LIG    1       35.048  56.278  70.141  0.00  0.00    +0.046 C 
HETATM    6  C   LIG    1       35.970  54.386  68.775  0.00  0.00    +0.042 A 
HETATM    7  C   LIG    1       36.952  53.841  67.959  0.00  0.00    -0.029 A 
HETATM    8  C   LIG    1       36.804  52.435  67.437  0.00  0.00    +0.046 C 
HETATM    9  C   LIG    1       38.063  54.588  67.624  0.00  0.00    +0.008 A 
ENDROOT
BRANCH   6  10
HETATM   10  N   LIG    1       34.840  53.632  69.114  0.00  0.00    -0.277 N 
HETATM   11  C   LIG    1       33.640  53.605  68.417  0.00  0.00    +0.093 C 
HETATM   12  C   LIG    1       32.819  52.773  69.051  0.00  0.00    +0.085 C 
HETATM   13  N   LIG    1       33.492  52.266  70.152  0.00  0.00    -0.322 N 
HETATM   14  H   LIG    1       33.136  51.634  70.796  0.00  0.00    +0.148 HD
HETATM   15  C   LIG    1       34.728  52.801  70.169  0.00  0.00    +0.220 C 
BRANCH  15  16
HETATM   16  S   LIG    1       35.943  52.487  71.334  0.00  0.00    -0.137 S 
HETATM   17  H   LIG    1       36.291  53.112  71.959  0.00  0.00    +0.105 HD
ENDBRANCH  15  16
ENDBRANCH   6  10
TORSDOF 2

ENDMDL
MODEL 9
REMARK VINA RESULT:      -4.6     20.172     20.772



ROOT
HETATM    1  C   LIG    1       50.605  66.961  58.355  0.00  0.00    +0.044 C 
HETATM    2  C   LIG    1       51.469  65.761  58.643  0.00  0.00    -0.050 A 
HETATM    3  C   LIG    1       52.092  65.637  59.871  0.00  0.00    +0.008 A 
HETATM    4  C   LIG    1       52.884  64.537  60.138  0.00  0.00    -0.029 A 
HETATM    5  C   LIG    1       53.563  64.403  61.476  0.00  0.00    +0.046 C 
HETATM    6  C   LIG    1       53.052  63.553  59.171  0.00  0.00    +0.042 A 
HETATM    7  C   LIG    1       52.424  63.680  57.940  0.00  0.00    -0.029 A 
HETATM    8  C   LIG    1       52.604  62.616  56.888  0.00  0.00    +0.046 C 
HETATM    9  C   LIG    1       51.630  64.780  57.680  0.00  0.00    +0.008 A 
ENDROOT
BRANCH   6  10
HETATM   10  N   LIG    1       53.853  62.437  59.439  0.00  0.00    -0.277 N 
HETATM   11  C   LIG    1       55.222  62.348  59.234  0.00  0.00    +0.093 C 
HETATM   12  C   LIG    1       55.613  61.134  59.609  0.00  0.00    +0.085 C 
HETATM   13  N   LIG    1       54.496  60.444  60.054  0.00  0.00    -0.322 N 
HETATM   14  H   LIG    1       54.485  59.534  60.388  0.00  0.00    +0.148 HD
HETATM   15  C   LIG    1       53.431  61.261  59.946  0.00  0.00    +0.220 C 
BRANCH  15  16
HETATM   16  S   LIG    1       51.819  60.872  60.372  0.00  0.00    -0.137 S 
HETATM   17  H   LIG    1       51.109  61.491  60.495  0.00  0.00    +0.105 HD
ENDBRANCH  15  16
ENDBRANCH   6  10
TORSDOF 2

ENDMDL
