MODEL 1
REMARK VINA RESULT:      -5.3      0.000      0.000
ROOT
HETATM    1  C   LIG    1       46.070  29.729  51.529  0.00  0.00    +0.141 A 
HETATM    2  C   LIG    1       45.650  28.754  50.639  0.00  0.00    +0.049 A 
HETATM    3  C   LIG    1       44.540  27.984  50.930  0.00  0.00    +0.024 A 
HETATM    4  C   LIG    1       43.844  28.185  52.110  0.00  0.00    +0.043 A 
HETATM    5 CL   LIG    1       42.449  27.215  52.468  0.00  0.00    -0.083 Cl
HETATM    6  C   LIG    1       44.257  29.156  53.003  0.00  0.00    +0.047 A 
HETATM    7  C   LIG    1       45.375  29.928  52.719  0.00  0.00    +0.079 A 
ENDROOT
BRANCH   7   8
HETATM    8  N   LIG    1       45.796  30.913  53.623  0.00  0.00    -0.275 N 
HETATM    9  C   LIG    1       45.353  32.228  53.662  0.00  0.00    +0.093 C 
HETATM   10  C   LIG    1       45.986  32.843  54.656  0.00  0.00    +0.085 C 
HETATM   11  N   LIG    1       46.837  31.924  55.254  0.00  0.00    -0.322 N 
HETATM   12  H   LIG    1       47.423  32.097  56.007  0.00  0.00    +0.148 HD
HETATM   13  C   LIG    1       46.700  30.748  54.610  0.00  0.00    +0.220 C 
BRANCH  13  14
HETATM   14  S   LIG    1       47.537  29.300  54.975  0.00  0.00    -0.137 S 
HETATM   15  H   LIG    1       48.018  29.121  55.773  0.00  0.00    +0.105 HD
ENDBRANCH  13  14
ENDBRANCH   7   8
BRANCH   1  17
HETATM   16  C   LIG    1       48.276  29.594  51.169  0.00  0.00    +0.277 C 
HETATM   17  O   LIG    1       47.163  30.487  51.244  0.00  0.00    -0.493 OA
ENDBRANCH   1  17
TORSDOF 3

ENDMDL
MODEL 2
REMARK VINA RESULT:      -5.1      2.053      2.829
ROOT
HETATM    1  C   LIG    1       44.837  29.743  53.819  0.00  0.00    +0.141 A 
HETATM    2  C   LIG    1       43.969  28.836  53.234  0.00  0.00    +0.049 A 
HETATM    3  C   LIG    1       44.025  28.606  51.872  0.00  0.00    +0.024 A 
HETATM    4  C   LIG    1       44.947  29.279  51.090  0.00  0.00    +0.043 A 
HETATM    5 CL   LIG    1       45.012  28.984  49.380  0.00  0.00    -0.083 Cl
HETATM    6  C   LIG    1       45.817  30.186  51.668  0.00  0.00    +0.047 A 
HETATM    7  C   LIG    1       45.762  30.426  53.033  0.00  0.00    +0.079 A 
ENDROOT
BRANCH   7   8
HETATM    8  N   LIG    1       46.642  31.345  53.621  0.00  0.00    -0.275 N 
HETATM    9  C   LIG    1       46.371  32.681  53.883  0.00  0.00    +0.093 C 
HETATM   10  C   LIG    1       47.452  33.215  54.442  0.00  0.00    +0.085 C 
HETATM   11  N   LIG    1       48.417  32.223  54.539  0.00  0.00    -0.322 N 
HETATM   12  H   LIG    1       49.307  32.328  54.908  0.00  0.00    +0.148 HD
HETATM   13  C   LIG    1       47.898  31.086  54.036  0.00  0.00    +0.220 C 
BRANCH  13  14
HETATM   14  S   LIG    1       48.699  29.576  53.931  0.00  0.00    -0.137 S 
HETATM   15  H   LIG    1       49.387  29.352  53.316  0.00  0.00    +0.105 HD
ENDBRANCH  13  14
ENDBRANCH   7   8
BRANCH   1  17
HETATM   16  C   LIG    1       43.684  30.857  55.384  0.00  0.00    +0.277 C 
HETATM   17  O   LIG    1       44.783  29.971  55.160  0.00  0.00    -0.493 OA
ENDBRANCH   1  17
TORSDOF 3

ENDMDL
MODEL 3
REMARK VINA RESULT:      -4.9      3.250      4.793
ROOT
HETATM    1  C   LIG    1       47.652  29.926  51.490  0.00  0.00    +0.141 A 
HETATM    2  C   LIG    1       46.523  30.066  52.279  0.00  0.00    +0.049 A 
HETATM    3  C   LIG    1       45.332  29.480  51.893  0.00  0.00    +0.024 A 
HETATM    4  C   LIG    1       45.265  28.751  50.719  0.00  0.00    +0.043 A 
HETATM    5 CL   LIG    1       43.766  28.016  50.240  0.00  0.00    -0.083 Cl
HETATM    6  C   LIG    1       46.388  28.607  49.926  0.00  0.00    +0.047 A 
HETATM    7  C   LIG    1       47.585  29.199  50.305  0.00  0.00    +0.079 A 
ENDROOT
BRANCH   7   8
HETATM    8  N   LIG    1       48.725  29.055  49.502  0.00  0.00    -0.275 N 
HETATM    9  C   LIG    1       48.992  29.752  48.332  0.00  0.00    +0.093 C 
HETATM   10  C   LIG    1       50.165  29.335  47.867  0.00  0.00    +0.085 C 
HETATM   11  N   LIG    1       50.651  28.370  48.737  0.00  0.00    -0.322 N 
HETATM   12  H   LIG    1       51.489  27.892  48.646  0.00  0.00    +0.148 HD
HETATM   13  C   LIG    1       49.756  28.219  49.733  0.00  0.00    +0.220 C 
BRANCH  13  14
HETATM   14  S   LIG    1       49.900  27.143  51.057  0.00  0.00    -0.137 S 
HETATM   15  H   LIG    1       49.488  27.246  51.906  0.00  0.00    +0.105 HD
ENDBRANCH  13  14
ENDBRANCH   7   8
BRANCH   1  17
HETATM   16  C   LIG    1       48.977  30.249  53.267  0.00  0.00    +0.277 C 
HETATM   17  O   LIG    1       48.825  30.503  51.869  0.00  0.00    -0.493 OA
ENDBRANCH   1  17
TORSDOF 3

ENDMDL
MODEL 4
REMARK VINA RESULT:      -4.8     24.994     25.885
ROOT
HETATM    1  C   LIG    1       60.499  50.990  45.205  0.00  0.00    +0.141 A 
HETATM    2  C   LIG    1       59.685  51.686  44.327  0.00  0.00    +0.049 A 
HETATM    3  C   LIG    1       58.531  51.100  43.842  0.00  0.00    +0.024 A 
HETATM    4  C   LIG    1       58.184  49.819  44.233  0.00  0.00    +0.043 A 
HETATM    5 CL   LIG    1       56.731  49.090  43.621  0.00  0.00    -0.083 Cl
HETATM    6  C   LIG    1       58.991  49.118  45.109  0.00  0.00    +0.047 A 
HETATM    7  C   LIG    1       60.155  49.697  45.594  0.00  0.00    +0.079 A 
ENDROOT
BRANCH   7   8
HETATM    8  N   LIG    1       60.976  48.989  46.483  0.00  0.00    -0.275 N 
HETATM    9  C   LIG    1       60.833  48.940  47.862  0.00  0.00    +0.093 C 
HETATM   10  C   LIG    1       61.801  48.168  48.346  0.00  0.00    +0.085 C 
HETATM   11  N   LIG    1       62.566  47.722  47.277  0.00  0.00    -0.322 N 
HETATM   12  H   LIG    1       63.340  47.141  47.334  0.00  0.00    +0.148 HD
HETATM   13  C   LIG    1       62.039  48.232  46.146  0.00  0.00    +0.220 C 
BRANCH  13  14
HETATM   14  S   LIG    1       62.626  47.972  44.559  0.00  0.00    -0.137 S 
HETATM   15  H   LIG    1       63.469  47.600  44.331  0.00  0.00    +0.105 HD
ENDBRANCH  13  14
ENDBRANCH   7   8
BRANCH   1  17
HETATM   16  C   LIG    1       62.390  51.994  44.547  0.00  0.00    +0.277 C 
HETATM   17  O   LIG    1       61.636  51.564  45.683  0.00  0.00    -0.493 OA
ENDBRANCH   1  17
TORSDOF 3

ENDMDL
MODEL 5
REMARK VINA RESULT:      -4.8     25.549     26.847
ROOT
HETATM    1  C   LIG    1       62.551  50.794  44.874  0.00  0.00    +0.141 A 
HETATM    2  C   LIG    1       62.140  52.096  44.639  0.00  0.00    +0.049 A 
HETATM    3  C   LIG    1       60.803  52.371  44.422  0.00  0.00    +0.024 A 
HETATM    4  C   LIG    1       59.871  51.348  44.440  0.00  0.00    +0.043 A 
HETATM    5 CL   LIG    1       58.193  51.701  44.169  0.00  0.00    -0.083 Cl
HETATM    6  C   LIG    1       60.273  50.046  44.674  0.00  0.00    +0.047 A 
HETATM    7  C   LIG    1       61.615  49.763  44.886  0.00  0.00    +0.079 A 
ENDROOT
BRANCH   7   8
HETATM    8  N   LIG    1       62.026  48.443  45.123  0.00  0.00    -0.275 N 
HETATM    9  C   LIG    1       62.413  47.524  44.158  0.00  0.00    +0.093 C 
HETATM   10  C   LIG    1       62.728  46.391  44.776  0.00  0.00    +0.085 C 
HETATM   11  N   LIG    1       62.543  46.582  46.138  0.00  0.00    -0.322 N 
HETATM   12  H   LIG    1       62.697  45.922  46.832  0.00  0.00    +0.148 HD
HETATM   13  C   LIG    1       62.118  47.847  46.328  0.00  0.00    +0.220 C 
BRANCH  13  14
HETATM   14  S   LIG    1       61.750  48.566  47.837  0.00  0.00    -0.137 S 
HETATM   15  H   LIG    1       61.811  49.492  48.042  0.00  0.00    +0.105 HD
ENDBRANCH  13  14
ENDBRANCH   7   8
BRANCH   1  17
HETATM   16  C   LIG    1       64.225  51.154  46.317  0.00  0.00    +0.277 C 
HETATM   17  O   LIG    1       63.867  50.522  45.087  0.00  0.00    -0.493 OA
ENDBRANCH   1  17
TORSDOF 3

ENDMDL
MODEL 6
REMARK VINA RESULT:      -4.8      3.279      4.885
ROOT
HETATM    1  C   LIG    1       45.397  28.650  51.199  0.00  0.00    +0.141 A 
HETATM    2  C   LIG    1       44.538  29.054  52.207  0.00  0.00    +0.049 A 
HETATM    3  C   LIG    1       44.810  30.199  52.931  0.00  0.00    +0.024 A 
HETATM    4  C   LIG    1       45.940  30.947  52.650  0.00  0.00    +0.043 A 
HETATM    5 CL   LIG    1       46.275  32.386  53.563  0.00  0.00    -0.083 Cl
HETATM    6  C   LIG    1       46.803  30.551  51.645  0.00  0.00    +0.047 A 
HETATM    7  C   LIG    1       46.538  29.398  50.919  0.00  0.00    +0.079 A 
ENDROOT
BRANCH   7   8
HETATM    8  N   LIG    1       47.411  28.993  49.899  0.00  0.00    -0.275 N 
HETATM    9  C   LIG    1       47.150  29.037  48.537  0.00  0.00    +0.093 C 
HETATM   10  C   LIG    1       48.219  28.570  47.901  0.00  0.00    +0.085 C 
HETATM   11  N   LIG    1       49.166  28.225  48.854  0.00  0.00    -0.322 N 
HETATM   12  H   LIG    1       50.046  27.857  48.676  0.00  0.00    +0.148 HD
HETATM   13  C   LIG    1       48.653  28.498  50.070  0.00  0.00    +0.220 C 
BRANCH  13  14
HETATM   14  S   LIG    1       49.438  28.250  51.570  0.00  0.00    -0.137 S 
HETATM   15  H   LIG    1       49.067  28.417  52.428  0.00  0.00    +0.105 HD
ENDBRANCH  13  14
ENDBRANCH   7   8
BRANCH   1  17
HETATM   16  C   LIG    1       44.033  26.875  51.133  0.00  0.00    +0.277 C 
HETATM   17  O   LIG    1       45.130  27.522  50.486  0.00  0.00    -0.493 OA
ENDBRANCH   1  17
TORSDOF 3

ENDMDL
MODEL 7
REMARK VINA RESULT:      -4.7     25.104     26.182
ROOT
HETATM    1  C   LIG    1       60.609  49.404  46.677  0.00  0.00    +0.141 A 
HETATM    2  C   LIG    1       59.276  49.499  47.042  0.00  0.00    +0.049 A 
HETATM    3  C   LIG    1       58.292  49.486  46.072  0.00  0.00    +0.024 A 
HETATM    4  C   LIG    1       58.633  49.376  44.736  0.00  0.00    +0.043 A 
HETATM    5 CL   LIG    1       57.390  49.359  43.523  0.00  0.00    -0.083 Cl
HETATM    6  C   LIG    1       59.961  49.281  44.364  0.00  0.00    +0.047 A 
HETATM    7  C   LIG    1       60.955  49.300  45.332  0.00  0.00    +0.079 A 
ENDROOT
BRANCH   7   8
HETATM    8  N   LIG    1       62.303  49.204  44.958  0.00  0.00    -0.275 N 
HETATM    9  C   LIG    1       63.001  48.029  44.718  0.00  0.00    +0.093 C 
HETATM   10  C   LIG    1       64.247  48.354  44.390  0.00  0.00    +0.085 C 
HETATM   11  N   LIG    1       64.350  49.737  44.420  0.00  0.00    -0.322 N 
HETATM   12  H   LIG    1       65.146  50.254  44.223  0.00  0.00    +0.148 HD
HETATM   13  C   LIG    1       63.147  50.237  44.765  0.00  0.00    +0.220 C 
BRANCH  13  14
HETATM   14  S   LIG    1       62.761  51.896  44.938  0.00  0.00    -0.137 S 
HETATM   15  H   LIG    1       63.072  52.601  44.383  0.00  0.00    +0.105 HD
ENDBRANCH  13  14
ENDBRANCH   7   8
BRANCH   1  17
HETATM   16  C   LIG    1       61.299  48.336  48.521  0.00  0.00    +0.277 C 
HETATM   17  O   LIG    1       61.580  49.418  47.631  0.00  0.00    -0.493 OA
ENDBRANCH   1  17
TORSDOF 3

ENDMDL
MODEL 8
REMARK VINA RESULT:      -4.7      2.627      3.693
ROOT
HETATM    1  C   LIG    1       46.133  31.667  53.877  0.00  0.00    +0.141 A 
HETATM    2  C   LIG    1       45.092  31.436  52.992  0.00  0.00    +0.049 A 
HETATM    3  C   LIG    1       45.295  30.643  51.879  0.00  0.00    +0.024 A 
HETATM    4  C   LIG    1       46.535  30.075  51.646  0.00  0.00    +0.043 A 
HETATM    5 CL   LIG    1       46.781  29.077  50.246  0.00  0.00    -0.083 Cl
HETATM    6  C   LIG    1       47.578  30.300  52.525  0.00  0.00    +0.047 A 
HETATM    7  C   LIG    1       47.383  31.102  53.641  0.00  0.00    +0.079 A 
ENDROOT
BRANCH   7   8
HETATM    8  N   LIG    1       48.439  31.333  54.533  0.00  0.00    -0.275 N 
HETATM    9  C   LIG    1       49.350  32.378  54.466  0.00  0.00    +0.093 C 
HETATM   10  C   LIG    1       50.193  32.251  55.486  0.00  0.00    +0.085 C 
HETATM   11  N   LIG    1       49.825  31.124  56.206  0.00  0.00    -0.322 N 
HETATM   12  H   LIG    1       50.264  30.789  57.003  0.00  0.00    +0.148 HD
HETATM   13  C   LIG    1       48.746  30.581  55.609  0.00  0.00    +0.220 C 
BRANCH  13  14
HETATM   14  S   LIG    1       47.916  29.175  56.122  0.00  0.00    -0.137 S 
HETATM   15  H   LIG    1       47.062  28.890  55.820  0.00  0.00    +0.105 HD
ENDBRANCH  13  14
ENDBRANCH   7   8
BRANCH   1  17
HETATM   16  C   LIG    1       45.019  31.751  55.818  0.00  0.00    +0.277 C 
HETATM   17  O   LIG    1       45.935  32.449  54.973  0.00  0.00    -0.493 OA
ENDBRANCH   1  17
TORSDOF 3

ENDMDL
MODEL 9
REMARK VINA RESULT:      -4.6     10.630     11.333
ROOT
HETATM    1  C   LIG    1       42.330  19.327  55.484  0.00  0.00    +0.141 A 
HETATM    2  C   LIG    1       42.197  18.781  54.218  0.00  0.00    +0.049 A 
HETATM    3  C   LIG    1       41.311  19.338  53.316  0.00  0.00    +0.024 A 
HETATM    4  C   LIG    1       40.555  20.441  53.672  0.00  0.00    +0.043 A 
HETATM    5 CL   LIG    1       39.445  21.136  52.532  0.00  0.00    -0.083 Cl
HETATM    6  C   LIG    1       40.684  20.992  54.934  0.00  0.00    +0.047 A 
HETATM    7  C   LIG    1       41.567  20.434  55.847  0.00  0.00    +0.079 A 
ENDROOT
BRANCH   7   8
HETATM    8  N   LIG    1       41.698  20.990  57.128  0.00  0.00    -0.275 N 
HETATM    9  C   LIG    1       42.601  21.976  57.500  0.00  0.00    +0.093 C 
HETATM   10  C   LIG    1       42.416  22.233  58.790  0.00  0.00    +0.085 C 
HETATM   11  N   LIG    1       41.396  21.411  59.248  0.00  0.00    -0.322 N 
HETATM   12  H   LIG    1       41.049  21.384  60.152  0.00  0.00    +0.148 HD
HETATM   13  C   LIG    1       40.968  20.663  58.212  0.00  0.00    +0.220 C 
BRANCH  13  14
HETATM   14  S   LIG    1       39.719  19.493  58.267  0.00  0.00    -0.137 S 
HETATM   15  H   LIG    1       39.837  18.550  58.252  0.00  0.00    +0.105 HD
ENDBRANCH  13  14
ENDBRANCH   7   8
BRANCH   1  17
HETATM   16  C   LIG    1       42.666  17.509  56.749  0.00  0.00    +0.277 C 
HETATM   17  O   LIG    1       43.202  18.780  56.375  0.00  0.00    -0.493 OA
ENDBRANCH   1  17
TORSDOF 3

ENDMDL
