MODEL 1
REMARK VINA RESULT:      -5.5      0.000      0.000



ROOT
HETATM    1  C   LIG    1       59.620  52.823  44.187  0.00  0.00    +0.044 C 
HETATM    2  C   LIG    1       60.342  51.512  44.357  0.00  0.00    -0.050 A 
HETATM    3  C   LIG    1       59.638  50.323  44.285  0.00  0.00    +0.005 A 
HETATM    4  C   LIG    1       60.296  49.119  44.441  0.00  0.00    +0.024 A 
HETATM    5  C   LIG    1       61.666  49.102  44.671  0.00  0.00    +0.039 A 
HETATM    6  C   LIG    1       62.369  50.298  44.744  0.00  0.00    -0.029 A 
HETATM    7  C   LIG    1       63.855  50.285  44.994  0.00  0.00    +0.045 C 
HETATM    8  C   LIG    1       61.706  51.498  44.581  0.00  0.00    +0.008 A 
ENDROOT
BRANCH   5   9
HETATM    9  N   LIG    1       62.336  47.883  44.830  0.00  0.00    -0.278 N 
HETATM   10  C   LIG    1       62.847  47.095  43.808  0.00  0.00    +0.093 C 
HETATM   11  C   LIG    1       63.408  46.024  44.360  0.00  0.00    +0.085 C 
HETATM   12  N   LIG    1       63.257  46.125  45.735  0.00  0.00    -0.322 N 
HETATM   13  H   LIG    1       63.571  45.482  46.391  0.00  0.00    +0.148 HD
HETATM   14  C   LIG    1       62.604  47.272  46.000  0.00  0.00    +0.220 C 
BRANCH  14  15
HETATM   15  S   LIG    1       62.177  47.849  47.555  0.00  0.00    -0.137 S 
HETATM   16  H   LIG    1       61.709  48.654  47.742  0.00  0.00    +0.105 HD
ENDBRANCH  14  15
ENDBRANCH   5   9
TORSDOF 2

ENDMDL
MODEL 2
REMARK VINA RESULT:      -5.5     25.112     26.482



ROOT
HETATM    1  C   LIG    1       43.536  27.123  50.815  0.00  0.00    +0.044 C 
HETATM    2  C   LIG    1       44.309  28.199  51.532  0.00  0.00    -0.050 A 
HETATM    3  C   LIG    1       45.390  28.801  50.912  0.00  0.00    +0.005 A 
HETATM    4  C   LIG    1       46.102  29.788  51.566  0.00  0.00    +0.024 A 
HETATM    5  C   LIG    1       45.731  30.175  52.847  0.00  0.00    +0.039 A 
HETATM    6  C   LIG    1       44.647  29.569  53.467  0.00  0.00    -0.029 A 
HETATM    7  C   LIG    1       44.242  29.986  54.857  0.00  0.00    +0.045 C 
HETATM    8  C   LIG    1       43.936  28.587  52.805  0.00  0.00    +0.008 A 
ENDROOT
BRANCH   5   9
HETATM    9  N   LIG    1       46.451  31.175  53.513  0.00  0.00    -0.278 N 
HETATM   10  C   LIG    1       46.110  32.519  53.577  0.00  0.00    +0.093 C 
HETATM   11  C   LIG    1       47.038  33.142  54.297  0.00  0.00    +0.085 C 
HETATM   12  N   LIG    1       47.973  32.198  54.695  0.00  0.00    -0.322 N 
HETATM   13  H   LIG    1       48.762  32.370  55.233  0.00  0.00    +0.148 HD
HETATM   14  C   LIG    1       47.591  31.001  54.209  0.00  0.00    +0.220 C 
BRANCH  14  15
HETATM   15  S   LIG    1       48.418  29.518  54.428  0.00  0.00    -0.137 S 
HETATM   16  H   LIG    1       49.232  29.266  54.009  0.00  0.00    +0.105 HD
ENDBRANCH  14  15
ENDBRANCH   5   9
TORSDOF 2

ENDMDL
MODEL 3
REMARK VINA RESULT:      -5.3      2.259      4.210



ROOT
HETATM    1  C   LIG    1       65.206  50.052  44.609  0.00  0.00    +0.044 C 
HETATM    2  C   LIG    1       63.702  49.977  44.655  0.00  0.00    -0.050 A 
HETATM    3  C   LIG    1       63.073  48.745  44.648  0.00  0.00    +0.005 A 
HETATM    4  C   LIG    1       61.694  48.672  44.689  0.00  0.00    +0.024 A 
HETATM    5  C   LIG    1       60.939  49.838  44.738  0.00  0.00    +0.039 A 
HETATM    6  C   LIG    1       61.575  51.073  44.744  0.00  0.00    -0.029 A 
HETATM    7  C   LIG    1       60.760  52.340  44.795  0.00  0.00    +0.045 C 
HETATM    8  C   LIG    1       62.953  51.138  44.708  0.00  0.00    +0.008 A 
ENDROOT
BRANCH   5   9
HETATM    9  N   LIG    1       59.541  49.768  44.779  0.00  0.00    -0.278 N 
HETATM   10  C   LIG    1       58.685  49.940  43.701  0.00  0.00    +0.093 C 
HETATM   11  C   LIG    1       57.439  49.798  44.143  0.00  0.00    +0.085 C 
HETATM   12  N   LIG    1       57.497  49.534  45.503  0.00  0.00    -0.322 N 
HETATM   13  H   LIG    1       56.736  49.385  46.087  0.00  0.00    +0.148 HD
HETATM   14  C   LIG    1       58.793  49.514  45.870  0.00  0.00    +0.220 C 
BRANCH  14  15
HETATM   15  S   LIG    1       59.385  49.228  47.451  0.00  0.00    -0.137 S 
HETATM   16  H   LIG    1       59.853  49.852  47.993  0.00  0.00    +0.105 HD
ENDBRANCH  14  15
ENDBRANCH   5   9
TORSDOF 2

ENDMDL
MODEL 4
REMARK VINA RESULT:      -5.1     25.326     26.515



ROOT
HETATM    1  C   LIG    1       44.037  31.447  55.580  0.00  0.00    +0.044 C 
HETATM    2  C   LIG    1       44.459  30.930  54.229  0.00  0.00    -0.050 A 
HETATM    3  C   LIG    1       45.137  31.761  53.354  0.00  0.00    +0.005 A 
HETATM    4  C   LIG    1       45.524  31.291  52.114  0.00  0.00    +0.024 A 
HETATM    5  C   LIG    1       45.232  29.984  51.746  0.00  0.00    +0.039 A 
HETATM    6  C   LIG    1       44.551  29.153  52.626  0.00  0.00    -0.029 A 
HETATM    7  C   LIG    1       44.231  27.735  52.231  0.00  0.00    +0.045 C 
HETATM    8  C   LIG    1       44.171  29.627  53.867  0.00  0.00    +0.008 A 
ENDROOT
BRANCH   5   9
HETATM    9  N   LIG    1       45.623  29.505  50.489  0.00  0.00    -0.278 N 
HETATM   10  C   LIG    1       44.785  29.277  49.408  0.00  0.00    +0.093 C 
HETATM   11  C   LIG    1       45.528  28.826  48.402  0.00  0.00    +0.085 C 
HETATM   12  N   LIG    1       46.843  28.766  48.839  0.00  0.00    -0.322 N 
HETATM   13  H   LIG    1       47.605  28.472  48.314  0.00  0.00    +0.148 HD
HETATM   14  C   LIG    1       46.879  29.191  50.117  0.00  0.00    +0.220 C 
BRANCH  14  15
HETATM   15  S   LIG    1       48.277  29.302  51.100  0.00  0.00    -0.137 S 
HETATM   16  H   LIG    1       48.619  28.617  51.662  0.00  0.00    +0.105 HD
ENDBRANCH  14  15
ENDBRANCH   5   9
TORSDOF 2

ENDMDL
MODEL 5
REMARK VINA RESULT:      -5.0      1.918      2.422



ROOT
HETATM    1  C   LIG    1       58.456  51.940  43.923  0.00  0.00    +0.044 C 
HETATM    2  C   LIG    1       59.466  51.164  44.728  0.00  0.00    -0.050 A 
HETATM    3  C   LIG    1       59.039  50.214  45.638  0.00  0.00    +0.005 A 
HETATM    4  C   LIG    1       59.962  49.501  46.379  0.00  0.00    +0.024 A 
HETATM    5  C   LIG    1       61.320  49.740  46.209  0.00  0.00    +0.039 A 
HETATM    6  C   LIG    1       61.745  50.695  45.295  0.00  0.00    -0.029 A 
HETATM    7  C   LIG    1       63.217  50.958  45.108  0.00  0.00    +0.045 C 
HETATM    8  C   LIG    1       60.817  51.400  44.554  0.00  0.00    +0.008 A 
ENDROOT
BRANCH   5   9
HETATM    9  N   LIG    1       62.259  49.020  46.959  0.00  0.00    -0.278 N 
HETATM   10  C   LIG    1       62.725  49.359  48.221  0.00  0.00    +0.093 C 
HETATM   11  C   LIG    1       63.601  48.431  48.595  0.00  0.00    +0.085 C 
HETATM   12  N   LIG    1       63.695  47.497  47.574  0.00  0.00    -0.322 N 
HETATM   13  H   LIG    1       64.260  46.708  47.573  0.00  0.00    +0.148 HD
HETATM   14  C   LIG    1       62.861  47.875  46.585  0.00  0.00    +0.220 C 
BRANCH  14  15
HETATM   15  S   LIG    1       62.618  47.047  45.106  0.00  0.00    -0.137 S 
HETATM   16  H   LIG    1       63.188  46.382  44.739  0.00  0.00    +0.105 HD
ENDBRANCH  14  15
ENDBRANCH   5   9
TORSDOF 2

ENDMDL
MODEL 6
REMARK VINA RESULT:      -4.6     34.476     35.720



ROOT
HETATM    1  C   LIG    1       34.422  49.944  69.046  0.00  0.00    +0.044 C 
HETATM    2  C   LIG    1       35.094  51.288  68.929  0.00  0.00    -0.050 A 
HETATM    3  C   LIG    1       35.313  51.843  67.681  0.00  0.00    +0.005 A 
HETATM    4  C   LIG    1       35.930  53.074  67.570  0.00  0.00    +0.024 A 
HETATM    5  C   LIG    1       36.330  53.754  68.713  0.00  0.00    +0.039 A 
HETATM    6  C   LIG    1       36.109  53.194  69.964  0.00  0.00    -0.029 A 
HETATM    7  C   LIG    1       36.542  53.928  71.207  0.00  0.00    +0.045 C 
HETATM    8  C   LIG    1       35.487  51.965  70.068  0.00  0.00    +0.008 A 
ENDROOT
BRANCH   5   9
HETATM    9  N   LIG    1       36.956  55.002  68.603  0.00  0.00    -0.278 N 
HETATM   10  C   LIG    1       38.322  55.222  68.506  0.00  0.00    +0.093 C 
HETATM   11  C   LIG    1       38.520  56.534  68.420  0.00  0.00    +0.085 C 
HETATM   12  N   LIG    1       37.281  57.155  68.460  0.00  0.00    -0.322 N 
HETATM   13  H   LIG    1       37.121  58.111  68.416  0.00  0.00    +0.148 HD
HETATM   14  C   LIG    1       36.338  56.198  68.568  0.00  0.00    +0.220 C 
BRANCH  14  15
HETATM   15  S   LIG    1       34.648  56.459  68.655  0.00  0.00    -0.137 S 
HETATM   16  H   LIG    1       34.010  55.864  69.030  0.00  0.00    +0.105 HD
ENDBRANCH  14  15
ENDBRANCH   5   9
TORSDOF 2

ENDMDL
MODEL 7
REMARK VINA RESULT:      -4.6     23.424     24.789



ROOT
HETATM    1  C   LIG    1       43.494  31.465  55.626  0.00  0.00    +0.044 C 
HETATM    2  C   LIG    1       44.951  31.536  55.248  0.00  0.00    -0.050 A 
HETATM    3  C   LIG    1       45.361  32.398  54.246  0.00  0.00    +0.005 A 
HETATM    4  C   LIG    1       46.696  32.466  53.896  0.00  0.00    +0.024 A 
HETATM    5  C   LIG    1       47.625  31.668  54.550  0.00  0.00    +0.039 A 
HETATM    6  C   LIG    1       47.209  30.804  55.555  0.00  0.00    -0.029 A 
HETATM    7  C   LIG    1       48.215  29.936  56.267  0.00  0.00    +0.045 C 
HETATM    8  C   LIG    1       45.875  30.745  55.904  0.00  0.00    +0.008 A 
ENDROOT
BRANCH   5   9
HETATM    9  N   LIG    1       48.979  31.734  54.197  0.00  0.00    -0.278 N 
HETATM   10  C   LIG    1       49.911  32.626  54.708  0.00  0.00    +0.093 C 
HETATM   11  C   LIG    1       51.080  32.372  54.127  0.00  0.00    +0.085 C 
HETATM   12  N   LIG    1       50.897  31.318  53.246  0.00  0.00    -0.322 N 
HETATM   13  H   LIG    1       51.582  30.920  52.684  0.00  0.00    +0.148 HD
HETATM   14  C   LIG    1       49.606  30.939  53.309  0.00  0.00    +0.220 C 
BRANCH  14  15
HETATM   15  S   LIG    1       48.884  29.675  52.407  0.00  0.00    -0.137 S 
HETATM   16  H   LIG    1       49.255  29.255  51.640  0.00  0.00    +0.105 HD
ENDBRANCH  14  15
ENDBRANCH   5   9
TORSDOF 2

ENDMDL
MODEL 8
REMARK VINA RESULT:      -4.5     20.632     21.605



ROOT
HETATM    1  C   LIG    1       55.857  58.684  61.538  0.00  0.00    +0.044 C 
HETATM    2  C   LIG    1       55.113  59.732  60.752  0.00  0.00    -0.050 A 
HETATM    3  C   LIG    1       55.816  60.678  60.026  0.00  0.00    +0.005 A 
HETATM    4  C   LIG    1       55.137  61.641  59.305  0.00  0.00    +0.024 A 
HETATM    5  C   LIG    1       53.748  61.658  59.308  0.00  0.00    +0.039 A 
HETATM    6  C   LIG    1       53.046  60.708  60.038  0.00  0.00    -0.029 A 
HETATM    7  C   LIG    1       51.539  60.724  60.046  0.00  0.00    +0.045 C 
HETATM    8  C   LIG    1       53.731  59.745  60.753  0.00  0.00    +0.008 A 
ENDROOT
BRANCH   5   9
HETATM    9  N   LIG    1       53.057  62.634  58.578  0.00  0.00    -0.278 N 
HETATM   10  C   LIG    1       52.678  62.538  57.247  0.00  0.00    +0.093 C 
HETATM   11  C   LIG    1       52.045  63.660  56.921  0.00  0.00    +0.085 C 
HETATM   12  N   LIG    1       52.018  64.476  58.042  0.00  0.00    -0.322 N 
HETATM   13  H   LIG    1       51.620  65.359  58.095  0.00  0.00    +0.148 HD
HETATM   14  C   LIG    1       52.638  63.825  59.046  0.00  0.00    +0.220 C 
BRANCH  14  15
HETATM   15  S   LIG    1       52.864  64.416  60.637  0.00  0.00    -0.137 S 
HETATM   16  H   LIG    1       52.520  64.026  61.431  0.00  0.00    +0.105 HD
ENDBRANCH  14  15
ENDBRANCH   5   9
TORSDOF 2

ENDMDL
MODEL 9
REMARK VINA RESULT:      -4.5     33.003     34.343



ROOT
HETATM    1  C   LIG    1       29.741  42.344  48.655  0.00  0.00    +0.044 C 
HETATM    2  C   LIG    1       29.444  41.324  47.586  0.00  0.00    -0.050 A 
HETATM    3  C   LIG    1       28.133  41.041  47.248  0.00  0.00    +0.005 A 
HETATM    4  C   LIG    1       27.857  40.106  46.270  0.00  0.00    +0.024 A 
HETATM    5  C   LIG    1       28.898  39.450  45.625  0.00  0.00    +0.039 A 
HETATM    6  C   LIG    1       30.213  39.736  45.968  0.00  0.00    -0.029 A 
HETATM    7  C   LIG    1       31.345  39.025  45.272  0.00  0.00    +0.045 C 
HETATM    8  C   LIG    1       30.482  40.675  46.943  0.00  0.00    +0.008 A 
ENDROOT
BRANCH   5   9
HETATM    9  N   LIG    1       28.621  38.501  44.633  0.00  0.00    -0.278 N 
HETATM   10  C   LIG    1       28.434  37.141  44.836  0.00  0.00    +0.093 C 
HETATM   11  C   LIG    1       28.194  36.581  43.654  0.00  0.00    +0.085 C 
HETATM   12  N   LIG    1       28.226  37.581  42.694  0.00  0.00    -0.322 N 
HETATM   13  H   LIG    1       28.084  37.462  41.742  0.00  0.00    +0.148 HD
HETATM   14  C   LIG    1       28.484  38.748  43.316  0.00  0.00    +0.220 C 
BRANCH  14  15
HETATM   15  S   LIG    1       28.623  40.279  42.561  0.00  0.00    -0.137 S 
HETATM   16  H   LIG    1       28.309  41.104  42.911  0.00  0.00    +0.105 HD
ENDBRANCH  14  15
ENDBRANCH   5   9
TORSDOF 2

ENDMDL
