MODEL 1
REMARK VINA RESULT:      -5.6      0.000      0.000



ROOT
HETATM    1  C   LIG    1       45.837  29.664  51.603  0.00  0.00    +0.141 A 
HETATM    2  C   LIG    1       45.402  28.675  50.736  0.00  0.00    +0.048 A 
HETATM    3  C   LIG    1       44.309  27.897  51.066  0.00  0.00    +0.007 A 
HETATM    4  C   LIG    1       43.646  28.102  52.262  0.00  0.00    -0.048 A 
HETATM    5  C   LIG    1       42.455  27.249  52.617  0.00  0.00    +0.044 C 
HETATM    6  C   LIG    1       44.074  29.085  53.134  0.00  0.00    +0.030 A 
HETATM    7  C   LIG    1       45.173  29.867  52.811  0.00  0.00    +0.078 A 
ENDROOT
BRANCH   7   8
HETATM    8  N   LIG    1       45.608  30.866  53.694  0.00  0.00    -0.275 N 
HETATM    9  C   LIG    1       45.123  32.164  53.760  0.00  0.00    +0.093 C 
HETATM   10  C   LIG    1       45.785  32.799  54.722  0.00  0.00    +0.085 C 
HETATM   11  N   LIG    1       46.696  31.909  55.272  0.00  0.00    -0.322 N 
HETATM   12  H   LIG    1       47.315  32.101  55.994  0.00  0.00    +0.148 HD
HETATM   13  C   LIG    1       46.566  30.731  54.632  0.00  0.00    +0.220 C 
BRANCH  13  14
HETATM   14  S   LIG    1       47.470  29.311  54.949  0.00  0.00    -0.137 S 
HETATM   15  H   LIG    1       48.330  29.276  55.350  0.00  0.00    +0.105 HD
ENDBRANCH  13  14
ENDBRANCH   7   8
BRANCH   1  17
HETATM   16  C   LIG    1       47.973  29.534  50.946  0.00  0.00    +0.277 C 
HETATM   17  O   LIG    1       46.912  30.431  51.280  0.00  0.00    -0.493 OA
ENDBRANCH   1  17
TORSDOF 3

ENDMDL
MODEL 2
REMARK VINA RESULT:      -5.2      1.741      2.824



ROOT
HETATM    1  C   LIG    1       44.829  29.732  53.826  0.00  0.00    +0.141 A 
HETATM    2  C   LIG    1       43.966  28.818  53.243  0.00  0.00    +0.048 A 
HETATM    3  C   LIG    1       44.037  28.568  51.885  0.00  0.00    +0.007 A 
HETATM    4  C   LIG    1       44.969  29.228  51.105  0.00  0.00    -0.048 A 
HETATM    5  C   LIG    1       45.042  28.950  49.626  0.00  0.00    +0.044 C 
HETATM    6  C   LIG    1       45.833  30.142  51.678  0.00  0.00    +0.030 A 
HETATM    7  C   LIG    1       45.763  30.401  53.039  0.00  0.00    +0.078 A 
ENDROOT
BRANCH   7   8
HETATM    8  N   LIG    1       46.639  31.328  53.623  0.00  0.00    -0.275 N 
HETATM    9  C   LIG    1       46.365  32.667  53.868  0.00  0.00    +0.093 C 
HETATM   10  C   LIG    1       47.441  33.207  54.429  0.00  0.00    +0.085 C 
HETATM   11  N   LIG    1       48.406  32.217  54.544  0.00  0.00    -0.322 N 
HETATM   12  H   LIG    1       49.294  32.327  54.918  0.00  0.00    +0.148 HD
HETATM   13  C   LIG    1       47.891  31.074  54.050  0.00  0.00    +0.220 C 
BRANCH  13  14
HETATM   14  S   LIG    1       48.694  29.564  53.967  0.00  0.00    -0.137 S 
HETATM   15  H   LIG    1       49.589  29.423  53.680  0.00  0.00    +0.105 HD
ENDBRANCH  13  14
ENDBRANCH   7   8
BRANCH   1  17
HETATM   16  C   LIG    1       43.649  30.855  55.361  0.00  0.00    +0.277 C 
HETATM   17  O   LIG    1       44.760  29.979  55.161  0.00  0.00    -0.493 OA
ENDBRANCH   1  17
TORSDOF 3

ENDMDL
MODEL 3
REMARK VINA RESULT:      -5.1     25.468     27.024



ROOT
HETATM    1  C   LIG    1       62.562  50.790  44.881  0.00  0.00    +0.141 A 
HETATM    2  C   LIG    1       62.156  52.094  44.651  0.00  0.00    +0.048 A 
HETATM    3  C   LIG    1       60.821  52.374  44.424  0.00  0.00    +0.007 A 
HETATM    4  C   LIG    1       59.888  51.354  44.426  0.00  0.00    -0.048 A 
HETATM    5  C   LIG    1       58.434  51.665  44.178  0.00  0.00    +0.044 C 
HETATM    6  C   LIG    1       60.284  50.049  44.653  0.00  0.00    +0.030 A 
HETATM    7  C   LIG    1       61.622  49.761  44.876  0.00  0.00    +0.078 A 
ENDROOT
BRANCH   7   8
HETATM    8  N   LIG    1       62.026  48.438  45.107  0.00  0.00    -0.275 N 
HETATM    9  C   LIG    1       62.414  47.523  44.139  0.00  0.00    +0.093 C 
HETATM   10  C   LIG    1       62.723  46.385  44.752  0.00  0.00    +0.085 C 
HETATM   11  N   LIG    1       62.534  46.570  46.114  0.00  0.00    -0.322 N 
HETATM   12  H   LIG    1       62.683  45.906  46.805  0.00  0.00    +0.148 HD
HETATM   13  C   LIG    1       62.114  47.835  46.309  0.00  0.00    +0.220 C 
BRANCH  13  14
HETATM   14  S   LIG    1       61.743  48.549  47.821  0.00  0.00    -0.137 S 
HETATM   15  H   LIG    1       62.297  48.539  48.592  0.00  0.00    +0.105 HD
ENDBRANCH  13  14
ENDBRANCH   7   8
BRANCH   1  17
HETATM   16  C   LIG    1       64.221  51.129  46.345  0.00  0.00    +0.277 C 
HETATM   17  O   LIG    1       63.874  50.513  45.104  0.00  0.00    -0.493 OA
ENDBRANCH   1  17
TORSDOF 3

ENDMDL
MODEL 4
REMARK VINA RESULT:      -5.1      1.327      2.855



ROOT
HETATM    1  C   LIG    1       44.458  28.988  52.251  0.00  0.00    +0.141 A 
HETATM    2  C   LIG    1       44.375  28.100  51.191  0.00  0.00    +0.048 A 
HETATM    3  C   LIG    1       45.358  28.089  50.219  0.00  0.00    +0.007 A 
HETATM    4  C   LIG    1       46.426  28.964  50.301  0.00  0.00    -0.048 A 
HETATM    5  C   LIG    1       47.494  28.947  49.238  0.00  0.00    +0.044 C 
HETATM    6  C   LIG    1       46.516  29.854  51.354  0.00  0.00    +0.030 A 
HETATM    7  C   LIG    1       45.531  29.873  52.331  0.00  0.00    +0.078 A 
ENDROOT
BRANCH   7   8
HETATM    8  N   LIG    1       45.620  30.776  53.401  0.00  0.00    -0.275 N 
HETATM    9  C   LIG    1       44.996  32.013  53.479  0.00  0.00    +0.093 C 
HETATM   10  C   LIG    1       45.325  32.563  54.643  0.00  0.00    +0.085 C 
HETATM   11  N   LIG    1       46.159  31.680  55.312  0.00  0.00    -0.322 N 
HETATM   12  H   LIG    1       46.554  31.820  56.187  0.00  0.00    +0.148 HD
HETATM   13  C   LIG    1       46.322  30.590  54.536  0.00  0.00    +0.220 C 
BRANCH  13  14
HETATM   14  S   LIG    1       47.266  29.214  54.921  0.00  0.00    -0.137 S 
HETATM   15  H   LIG    1       47.148  28.652  55.677  0.00  0.00    +0.105 HD
ENDBRANCH  13  14
ENDBRANCH   7   8
BRANCH   1  17
HETATM   16  C   LIG    1       42.516  28.032  52.822  0.00  0.00    +0.277 C 
HETATM   17  O   LIG    1       43.492  29.000  53.208  0.00  0.00    -0.493 OA
ENDBRANCH   1  17
TORSDOF 3

ENDMDL
MODEL 5
REMARK VINA RESULT:      -5.0     24.840     26.067



ROOT
HETATM    1  C   LIG    1       60.494  51.011  45.217  0.00  0.00    +0.141 A 
HETATM    2  C   LIG    1       59.675  51.701  44.337  0.00  0.00    +0.048 A 
HETATM    3  C   LIG    1       58.538  51.099  43.833  0.00  0.00    +0.007 A 
HETATM    4  C   LIG    1       58.213  49.807  44.205  0.00  0.00    -0.048 A 
HETATM    5  C   LIG    1       56.972  49.156  43.651  0.00  0.00    +0.044 C 
HETATM    6  C   LIG    1       59.025  49.111  45.081  0.00  0.00    +0.030 A 
HETATM    7  C   LIG    1       60.170  49.708  45.587  0.00  0.00    +0.078 A 
ENDROOT
BRANCH   7   8
HETATM    8  N   LIG    1       60.995  49.003  46.476  0.00  0.00    -0.275 N 
HETATM    9  C   LIG    1       60.855  48.958  47.856  0.00  0.00    +0.093 C 
HETATM   10  C   LIG    1       61.824  48.188  48.339  0.00  0.00    +0.085 C 
HETATM   11  N   LIG    1       62.586  47.739  47.271  0.00  0.00    -0.322 N 
HETATM   12  H   LIG    1       63.362  47.159  47.327  0.00  0.00    +0.148 HD
HETATM   13  C   LIG    1       62.057  48.245  46.139  0.00  0.00    +0.220 C 
BRANCH  13  14
HETATM   14  S   LIG    1       62.640  47.981  44.551  0.00  0.00    -0.137 S 
HETATM   15  H   LIG    1       62.148  47.603  43.833  0.00  0.00    +0.105 HD
ENDBRANCH  13  14
ENDBRANCH   7   8
BRANCH   1  17
HETATM   16  C   LIG    1       62.476  51.850  44.603  0.00  0.00    +0.277 C 
HETATM   17  O   LIG    1       61.613  51.602  45.714  0.00  0.00    -0.493 OA
ENDBRANCH   1  17
TORSDOF 3

ENDMDL
MODEL 6
REMARK VINA RESULT:      -4.8     10.507     11.217



ROOT
HETATM    1  C   LIG    1       42.297  19.350  55.439  0.00  0.00    +0.141 A 
HETATM    2  C   LIG    1       42.154  18.823  54.166  0.00  0.00    +0.048 A 
HETATM    3  C   LIG    1       41.253  19.387  53.281  0.00  0.00    +0.007 A 
HETATM    4  C   LIG    1       40.493  20.477  53.664  0.00  0.00    -0.048 A 
HETATM    5  C   LIG    1       39.514  21.087  52.695  0.00  0.00    +0.044 C 
HETATM    6  C   LIG    1       40.629  21.008  54.933  0.00  0.00    +0.030 A 
HETATM    7  C   LIG    1       41.528  20.444  55.827  0.00  0.00    +0.078 A 
ENDROOT
BRANCH   7   8
HETATM    8  N   LIG    1       41.667  20.981  57.115  0.00  0.00    -0.275 N 
HETATM    9  C   LIG    1       42.581  21.953  57.499  0.00  0.00    +0.093 C 
HETATM   10  C   LIG    1       42.400  22.195  58.793  0.00  0.00    +0.085 C 
HETATM   11  N   LIG    1       41.370  21.381  59.240  0.00  0.00    -0.322 N 
HETATM   12  H   LIG    1       41.023  21.345  60.145  0.00  0.00    +0.148 HD
HETATM   13  C   LIG    1       40.932  20.651  58.195  0.00  0.00    +0.220 C 
BRANCH  13  14
HETATM   14  S   LIG    1       39.670  19.494  58.235  0.00  0.00    -0.137 S 
HETATM   15  H   LIG    1       39.717  18.632  58.631  0.00  0.00    +0.105 HD
ENDBRANCH  13  14
ENDBRANCH   7   8
BRANCH   1  17
HETATM   16  C   LIG    1       42.623  17.551  56.731  0.00  0.00    +0.277 C 
HETATM   17  O   LIG    1       43.182  18.796  56.310  0.00  0.00    -0.493 OA
ENDBRANCH   1  17
TORSDOF 3

ENDMDL
MODEL 7
REMARK VINA RESULT:      -4.6     28.842     30.549



ROOT
HETATM    1  C   LIG    1       36.202  53.126  67.987  0.00  0.00    +0.141 A 
HETATM    2  C   LIG    1       35.743  51.831  68.164  0.00  0.00    +0.048 A 
HETATM    3  C   LIG    1       35.500  51.352  69.437  0.00  0.00    +0.007 A 
HETATM    4  C   LIG    1       35.713  52.162  70.537  0.00  0.00    -0.048 A 
HETATM    5  C   LIG    1       35.446  51.633  71.923  0.00  0.00    +0.044 C 
HETATM    6  C   LIG    1       36.172  53.455  70.370  0.00  0.00    +0.030 A 
HETATM    7  C   LIG    1       36.423  53.941  69.095  0.00  0.00    +0.078 A 
ENDROOT
BRANCH   7   8
HETATM    8  N   LIG    1       36.889  55.252  68.923  0.00  0.00    -0.275 N 
HETATM    9  C   LIG    1       38.216  55.658  68.956  0.00  0.00    +0.093 C 
HETATM   10  C   LIG    1       38.247  56.970  68.751  0.00  0.00    +0.085 C 
HETATM   11  N   LIG    1       36.941  57.408  68.586  0.00  0.00    -0.322 N 
HETATM   12  H   LIG    1       36.662  58.322  68.421  0.00  0.00    +0.148 HD
HETATM   13  C   LIG    1       36.127  56.339  68.689  0.00  0.00    +0.220 C 
BRANCH  13  14
HETATM   14  S   LIG    1       34.420  56.359  68.558  0.00  0.00    -0.137 S 
HETATM   15  H   LIG    1       33.923  56.368  67.748  0.00  0.00    +0.105 HD
ENDBRANCH  13  14
ENDBRANCH   7   8
BRANCH   1  17
HETATM   16  C   LIG    1       37.667  53.007  66.298  0.00  0.00    +0.277 C 
HETATM   17  O   LIG    1       36.443  53.600  66.735  0.00  0.00    -0.493 OA
ENDBRANCH   1  17
TORSDOF 3

ENDMDL
MODEL 8
REMARK VINA RESULT:      -4.5     29.266     31.643



ROOT
HETATM    1  C   LIG    1       37.538  55.181  68.215  0.00  0.00    +0.141 A 
HETATM    2  C   LIG    1       36.205  54.883  68.447  0.00  0.00    +0.048 A 
HETATM    3  C   LIG    1       35.358  55.850  68.957  0.00  0.00    +0.007 A 
HETATM    4  C   LIG    1       35.839  57.116  69.238  0.00  0.00    -0.048 A 
HETATM    5  C   LIG    1       34.912  58.165  69.794  0.00  0.00    +0.044 C 
HETATM    6  C   LIG    1       37.168  57.421  69.011  0.00  0.00    +0.030 A 
HETATM    7  C   LIG    1       38.024  56.454  68.503  0.00  0.00    +0.078 A 
ENDROOT
BRANCH   7   8
HETATM    8  N   LIG    1       39.372  56.761  68.272  0.00  0.00    -0.275 N 
HETATM    9  C   LIG    1       39.901  57.281  67.098  0.00  0.00    +0.093 C 
HETATM   10  C   LIG    1       41.209  57.434  67.273  0.00  0.00    +0.085 C 
HETATM   11  N   LIG    1       41.521  57.014  68.557  0.00  0.00    -0.322 N 
HETATM   12  H   LIG    1       42.404  57.012  68.958  0.00  0.00    +0.148 HD
HETATM   13  C   LIG    1       40.381  56.612  69.153  0.00  0.00    +0.220 C 
BRANCH  13  14
HETATM   14  S   LIG    1       40.241  56.005  70.748  0.00  0.00    -0.137 S 
HETATM   15  H   LIG    1       39.588  56.265  71.388  0.00  0.00    +0.105 HD
ENDBRANCH  13  14
ENDBRANCH   7   8
BRANCH   1  17
HETATM   16  C   LIG    1       37.601  53.445  66.803  0.00  0.00    +0.277 C 
HETATM   17  O   LIG    1       38.371  54.231  67.714  0.00  0.00    -0.493 OA
ENDBRANCH   1  17
TORSDOF 3

ENDMDL
MODEL 9
REMARK VINA RESULT:      -4.5     10.107     11.750



ROOT
HETATM    1  C   LIG    1       40.263  20.200  56.981  0.00  0.00    +0.141 A 
HETATM    2  C   LIG    1       40.642  20.346  58.305  0.00  0.00    +0.048 A 
HETATM    3  C   LIG    1       41.573  21.306  58.657  0.00  0.00    +0.007 A 
HETATM    4  C   LIG    1       42.128  22.123  57.689  0.00  0.00    -0.048 A 
HETATM    5  C   LIG    1       43.142  23.167  58.079  0.00  0.00    +0.044 C 
HETATM    6  C   LIG    1       41.756  21.983  56.365  0.00  0.00    +0.030 A 
HETATM    7  C   LIG    1       40.827  21.019  56.004  0.00  0.00    +0.078 A 
ENDROOT
BRANCH   7   8
HETATM    8  N   LIG    1       40.448  20.876  54.662  0.00  0.00    -0.275 N 
HETATM    9  C   LIG    1       39.445  21.586  54.017  0.00  0.00    +0.093 C 
HETATM   10  C   LIG    1       39.393  21.166  52.757  0.00  0.00    +0.085 C 
HETATM   11  N   LIG    1       40.362  20.188  52.593  0.00  0.00    -0.322 N 
HETATM   12  H   LIG    1       40.551  19.704  51.773  0.00  0.00    +0.148 HD
HETATM   13  C   LIG    1       41.000  20.031  53.769  0.00  0.00    +0.220 C 
BRANCH  13  14
HETATM   14  S   LIG    1       42.281  18.937  54.080  0.00  0.00    -0.137 S 
HETATM   15  H   LIG    1       43.205  19.107  53.941  0.00  0.00    +0.105 HD
ENDBRANCH  13  14
ENDBRANCH   7   8
BRANCH   1  17
HETATM   16  C   LIG    1       38.578  18.978  57.803  0.00  0.00    +0.277 C 
HETATM   17  O   LIG    1       39.348  19.256  56.633  0.00  0.00    -0.493 OA
ENDBRANCH   1  17
TORSDOF 3

ENDMDL
