MODEL 1
REMARK VINA RESULT:      -5.3      0.000      0.000



ROOT
HETATM    1  C   LIG    1       57.056  49.142  43.684  0.00  0.00    +0.044 C 
HETATM    2  C   LIG    1       58.346  49.828  44.051  0.00  0.00    -0.049 A 
HETATM    3  C   LIG    1       58.447  51.205  43.960  0.00  0.00    +0.005 A 
HETATM    4  C   LIG    1       59.629  51.838  44.296  0.00  0.00    +0.022 A 
HETATM    5  C   LIG    1       60.713  51.098  44.725  0.00  0.00    +0.062 A 
HETATM    6 CL   LIG    1       62.198  51.895  45.147  0.00  0.00    -0.082 Cl
HETATM    7  C   LIG    1       60.616  49.715  44.819  0.00  0.00    +0.054 A 
HETATM    8  C   LIG    1       59.425  49.083  44.485  0.00  0.00    +0.028 A 
ENDROOT
BRANCH   7   9
HETATM    9  N   LIG    1       61.713  48.961  45.253  0.00  0.00    -0.276 N 
HETATM   10  C   LIG    1       62.780  48.547  44.468  0.00  0.00    +0.093 C 
HETATM   11  C   LIG    1       63.613  47.857  45.242  0.00  0.00    +0.085 C 
HETATM   12  N   LIG    1       63.081  47.829  46.521  0.00  0.00    -0.322 N 
HETATM   13  H   LIG    1       63.477  47.394  47.294  0.00  0.00    +0.148 HD
HETATM   14  C   LIG    1       61.921  48.515  46.507  0.00  0.00    +0.220 C 
BRANCH  14  15
HETATM   15  S   LIG    1       60.886  48.767  47.848  0.00  0.00    -0.137 S 
HETATM   16  H   LIG    1       60.586  48.099  48.454  0.00  0.00    +0.105 HD
ENDBRANCH  14  15
ENDBRANCH   7   9
TORSDOF 2

ENDMDL
MODEL 2
REMARK VINA RESULT:      -5.2      2.151      2.476



ROOT
HETATM    1  C   LIG    1       57.417  49.578  43.817  0.00  0.00    +0.044 C 
HETATM    2  C   LIG    1       58.497  49.457  44.860  0.00  0.00    -0.049 A 
HETATM    3  C   LIG    1       58.165  49.464  46.203  0.00  0.00    +0.005 A 
HETATM    4  C   LIG    1       59.152  49.353  47.163  0.00  0.00    +0.022 A 
HETATM    5  C   LIG    1       60.476  49.234  46.785  0.00  0.00    +0.062 A 
HETATM    6 CL   LIG    1       61.716  49.095  47.992  0.00  0.00    -0.082 Cl
HETATM    7  C   LIG    1       60.813  49.227  45.436  0.00  0.00    +0.054 A 
HETATM    8  C   LIG    1       59.817  49.333  44.475  0.00  0.00    +0.028 A 
ENDROOT
BRANCH   7   9
HETATM    9  N   LIG    1       62.154  49.107  45.049  0.00  0.00    -0.276 N 
HETATM   10  C   LIG    1       62.828  47.920  44.801  0.00  0.00    +0.093 C 
HETATM   11  C   LIG    1       64.077  48.224  44.460  0.00  0.00    +0.085 C 
HETATM   12  N   LIG    1       64.203  49.604  44.488  0.00  0.00    -0.322 N 
HETATM   13  H   LIG    1       65.008  50.107  44.283  0.00  0.00    +0.148 HD
HETATM   14  C   LIG    1       63.013  50.125  44.846  0.00  0.00    +0.220 C 
BRANCH  14  15
HETATM   15  S   LIG    1       62.658  51.790  45.021  0.00  0.00    -0.137 S 
HETATM   16  H   LIG    1       62.840  52.470  44.382  0.00  0.00    +0.105 HD
ENDBRANCH  14  15
ENDBRANCH   7   9
TORSDOF 2

ENDMDL
MODEL 3
REMARK VINA RESULT:      -4.8      2.241      2.901



ROOT
HETATM    1  C   LIG    1       59.934  52.628  43.724  0.00  0.00    +0.044 C 
HETATM    2  C   LIG    1       59.934  51.514  44.737  0.00  0.00    -0.049 A 
HETATM    3  C   LIG    1       58.736  51.018  45.219  0.00  0.00    +0.005 A 
HETATM    4  C   LIG    1       58.732  49.995  46.149  0.00  0.00    +0.022 A 
HETATM    5  C   LIG    1       59.925  49.464  46.600  0.00  0.00    +0.062 A 
HETATM    6 CL   LIG    1       59.919  48.180  47.769  0.00  0.00    -0.082 Cl
HETATM    7  C   LIG    1       61.131  49.960  46.118  0.00  0.00    +0.054 A 
HETATM    8  C   LIG    1       61.130  50.984  45.180  0.00  0.00    +0.028 A 
ENDROOT
BRANCH   7   9
HETATM    9  N   LIG    1       62.342  49.425  46.573  0.00  0.00    -0.276 N 
HETATM   10  C   LIG    1       63.046  49.839  47.695  0.00  0.00    +0.093 C 
HETATM   11  C   LIG    1       64.140  49.089  47.790  0.00  0.00    +0.085 C 
HETATM   12  N   LIG    1       64.138  48.195  46.731  0.00  0.00    -0.322 N 
HETATM   13  H   LIG    1       64.817  47.526  46.548  0.00  0.00    +0.148 HD
HETATM   14  C   LIG    1       63.026  48.415  46.001  0.00  0.00    +0.220 C 
BRANCH  14  15
HETATM   15  S   LIG    1       62.568  47.564  44.588  0.00  0.00    -0.137 S 
HETATM   16  H   LIG    1       63.019  47.587  43.752  0.00  0.00    +0.105 HD
ENDBRANCH  14  15
ENDBRANCH   7   9
TORSDOF 2

ENDMDL
MODEL 4
REMARK VINA RESULT:      -4.7     35.297     36.634



ROOT
HETATM    1  C   LIG    1       43.432  23.434  57.914  0.00  0.00    +0.044 C 
HETATM    2  C   LIG    1       42.396  22.376  57.633  0.00  0.00    -0.049 A 
HETATM    3  C   LIG    1       41.892  21.611  58.669  0.00  0.00    +0.005 A 
HETATM    4  C   LIG    1       40.942  20.639  58.416  0.00  0.00    +0.022 A 
HETATM    5  C   LIG    1       40.492  20.431  57.127  0.00  0.00    +0.062 A 
HETATM    6 CL   LIG    1       39.298  19.210  56.809  0.00  0.00    -0.082 Cl
HETATM    7  C   LIG    1       40.996  21.198  56.083  0.00  0.00    +0.054 A 
HETATM    8  C   LIG    1       41.947  22.176  56.343  0.00  0.00    +0.028 A 
ENDROOT
BRANCH   7   9
HETATM    9  N   LIG    1       40.543  20.989  54.774  0.00  0.00    -0.276 N 
HETATM   10  C   LIG    1       39.537  21.700  54.137  0.00  0.00    +0.093 C 
HETATM   11  C   LIG    1       39.400  21.204  52.910  0.00  0.00    +0.085 C 
HETATM   12  N   LIG    1       40.319  20.176  52.762  0.00  0.00    -0.322 N 
HETATM   13  H   LIG    1       40.443  19.634  51.967  0.00  0.00    +0.148 HD
HETATM   14  C   LIG    1       41.011  20.065  53.913  0.00  0.00    +0.220 C 
BRANCH  14  15
HETATM   15  S   LIG    1       42.261  18.938  54.228  0.00  0.00    -0.137 S 
HETATM   16  H   LIG    1       42.726  18.836  55.051  0.00  0.00    +0.105 HD
ENDBRANCH  14  15
ENDBRANCH   7   9
TORSDOF 2

ENDMDL
MODEL 5
REMARK VINA RESULT:      -4.7      2.186      3.040



ROOT
HETATM    1  C   LIG    1       59.200  50.056  44.174  0.00  0.00    +0.044 C 
HETATM    2  C   LIG    1       60.511  50.233  44.895  0.00  0.00    -0.049 A 
HETATM    3  C   LIG    1       61.397  51.214  44.488  0.00  0.00    +0.005 A 
HETATM    4  C   LIG    1       62.601  51.380  45.146  0.00  0.00    +0.022 A 
HETATM    5  C   LIG    1       62.924  50.565  46.214  0.00  0.00    +0.062 A 
HETATM    6 CL   LIG    1       64.437  50.773  47.040  0.00  0.00    -0.082 Cl
HETATM    7  C   LIG    1       62.036  49.577  46.626  0.00  0.00    +0.054 A 
HETATM    8  C   LIG    1       60.825  49.418  45.965  0.00  0.00    +0.028 A 
ENDROOT
BRANCH   7   9
HETATM    9  N   LIG    1       62.361  48.749  47.708  0.00  0.00    -0.276 N 
HETATM   10  C   LIG    1       62.102  49.015  49.044  0.00  0.00    +0.093 C 
HETATM   11  C   LIG    1       62.560  47.992  49.760  0.00  0.00    +0.085 C 
HETATM   12  N   LIG    1       63.111  47.071  48.883  0.00  0.00    -0.322 N 
HETATM   13  H   LIG    1       63.520  46.226  49.128  0.00  0.00    +0.148 HD
HETATM   14  C   LIG    1       62.973  47.551  47.631  0.00  0.00    +0.220 C 
BRANCH  14  15
HETATM   15  S   LIG    1       63.496  46.779  46.196  0.00  0.00    -0.137 S 
HETATM   16  H   LIG    1       62.940  46.333  45.567  0.00  0.00    +0.105 HD
ENDBRANCH  14  15
ENDBRANCH   7   9
TORSDOF 2

ENDMDL
MODEL 6
REMARK VINA RESULT:      -4.6      4.426      5.209



ROOT
HETATM    1  C   LIG    1       59.906  52.009  44.468  0.00  0.00    +0.044 C 
HETATM    2  C   LIG    1       61.321  51.528  44.663  0.00  0.00    -0.049 A 
HETATM    3  C   LIG    1       61.621  50.187  44.511  0.00  0.00    +0.005 A 
HETATM    4  C   LIG    1       62.918  49.741  44.689  0.00  0.00    +0.022 A 
HETATM    5  C   LIG    1       63.918  50.635  45.019  0.00  0.00    +0.062 A 
HETATM    6 CL   LIG    1       65.546  50.075  45.243  0.00  0.00    -0.082 Cl
HETATM    7  C   LIG    1       63.619  51.984  45.173  0.00  0.00    +0.054 A 
HETATM    8  C   LIG    1       62.316  52.428  44.987  0.00  0.00    +0.028 A 
ENDROOT
BRANCH   7   9
HETATM    9  N   LIG    1       64.630  52.894  45.508  0.00  0.00    -0.276 N 
HETATM   10  C   LIG    1       65.032  53.229  46.793  0.00  0.00    +0.093 C 
HETATM   11  C   LIG    1       66.013  54.121  46.694  0.00  0.00    +0.085 C 
HETATM   12  N   LIG    1       66.240  54.357  45.347  0.00  0.00    -0.322 N 
HETATM   13  H   LIG    1       66.901  54.965  44.979  0.00  0.00    +0.148 HD
HETATM   14  C   LIG    1       65.387  53.591  44.639  0.00  0.00    +0.220 C 
BRANCH  14  15
HETATM   15  S   LIG    1       65.278  53.525  42.932  0.00  0.00    -0.137 S 
HETATM   16  H   LIG    1       66.010  53.492  42.326  0.00  0.00    +0.105 HD
ENDBRANCH  14  15
ENDBRANCH   7   9
TORSDOF 2

ENDMDL
MODEL 7
REMARK VINA RESULT:      -4.5     33.307     34.292



ROOT
HETATM    1  C   LIG    1       34.489  51.786  70.807  0.00  0.00    +0.044 C 
HETATM    2  C   LIG    1       35.320  52.298  69.659  0.00  0.00    -0.049 A 
HETATM    3  C   LIG    1       35.548  51.493  68.558  0.00  0.00    +0.005 A 
HETATM    4  C   LIG    1       36.311  51.959  67.502  0.00  0.00    +0.022 A 
HETATM    5  C   LIG    1       36.847  53.231  67.545  0.00  0.00    +0.062 A 
HETATM    6 CL   LIG    1       37.805  53.815  66.219  0.00  0.00    -0.082 Cl
HETATM    7  C   LIG    1       36.620  54.043  68.650  0.00  0.00    +0.054 A 
HETATM    8  C   LIG    1       35.849  53.573  69.705  0.00  0.00    +0.028 A 
ENDROOT
BRANCH   7   9
HETATM    9  N   LIG    1       37.163  55.334  68.696  0.00  0.00    -0.276 N 
HETATM   10  C   LIG    1       38.493  55.650  68.929  0.00  0.00    +0.093 C 
HETATM   11  C   LIG    1       38.609  56.975  68.896  0.00  0.00    +0.085 C 
HETATM   12  N   LIG    1       37.355  57.506  68.641  0.00  0.00    -0.322 N 
HETATM   13  H   LIG    1       37.141  58.450  68.563  0.00  0.00    +0.148 HD
HETATM   14  C   LIG    1       36.485  56.484  68.517  0.00  0.00    +0.220 C 
BRANCH  14  15
HETATM   15  S   LIG    1       34.809  56.625  68.198  0.00  0.00    -0.137 S 
HETATM   16  H   LIG    1       34.313  56.101  67.580  0.00  0.00    +0.105 HD
ENDBRANCH  14  15
ENDBRANCH   7   9
TORSDOF 2

ENDMDL
MODEL 8
REMARK VINA RESULT:      -4.4      2.397      4.566



ROOT
HETATM    1  C   LIG    1       64.613  52.689  44.991  0.00  0.00    +0.044 C 
HETATM    2  C   LIG    1       64.032  51.307  44.845  0.00  0.00    -0.049 A 
HETATM    3  C   LIG    1       64.846  50.250  44.480  0.00  0.00    +0.005 A 
HETATM    4  C   LIG    1       64.317  48.980  44.345  0.00  0.00    +0.022 A 
HETATM    5  C   LIG    1       62.972  48.763  44.575  0.00  0.00    +0.062 A 
HETATM    6 CL   LIG    1       62.308  47.167  44.405  0.00  0.00    -0.082 Cl
HETATM    7  C   LIG    1       62.151  49.822  44.942  0.00  0.00    +0.054 A 
HETATM    8  C   LIG    1       62.688  51.095  45.082  0.00  0.00    +0.028 A 
ENDROOT
BRANCH   7   9
HETATM    9  N   LIG    1       60.787  49.606  45.176  0.00  0.00    -0.276 N 
HETATM   10  C   LIG    1       59.765  49.770  44.251  0.00  0.00    +0.093 C 
HETATM   11  C   LIG    1       58.618  49.468  44.852  0.00  0.00    +0.085 C 
HETATM   12  N   LIG    1       58.904  49.109  46.160  0.00  0.00    -0.322 N 
HETATM   13  H   LIG    1       58.257  48.840  46.832  0.00  0.00    +0.148 HD
HETATM   14  C   LIG    1       60.238  49.195  46.335  0.00  0.00    +0.220 C 
BRANCH  14  15
HETATM   15  S   LIG    1       61.085  48.852  47.783  0.00  0.00    -0.137 S 
HETATM   16  H   LIG    1       61.898  49.256  48.063  0.00  0.00    +0.105 HD
ENDBRANCH  14  15
ENDBRANCH   7   9
TORSDOF 2

ENDMDL
MODEL 9
REMARK VINA RESULT:      -4.4      2.328      3.174



ROOT
HETATM    1  C   LIG    1       60.202  52.584  44.499  0.00  0.00    +0.044 C 
HETATM    2  C   LIG    1       60.853  51.243  44.718  0.00  0.00    -0.049 A 
HETATM    3  C   LIG    1       60.266  50.098  44.211  0.00  0.00    +0.005 A 
HETATM    4  C   LIG    1       60.861  48.866  44.410  0.00  0.00    +0.022 A 
HETATM    5  C   LIG    1       62.045  48.775  45.115  0.00  0.00    +0.062 A 
HETATM    6 CL   LIG    1       62.792  47.227  45.365  0.00  0.00    -0.082 Cl
HETATM    7  C   LIG    1       62.639  49.924  45.626  0.00  0.00    +0.054 A 
HETATM    8  C   LIG    1       62.040  51.160  45.419  0.00  0.00    +0.028 A 
ENDROOT
BRANCH   7   9
HETATM    9  N   LIG    1       63.839  49.835  46.342  0.00  0.00    -0.276 N 
HETATM   10  C   LIG    1       65.112  50.036  45.828  0.00  0.00    +0.093 C 
HETATM   11  C   LIG    1       65.984  49.862  46.817  0.00  0.00    +0.085 C 
HETATM   12  N   LIG    1       65.270  49.552  47.964  0.00  0.00    -0.322 N 
HETATM   13  H   LIG    1       65.649  49.374  48.840  0.00  0.00    +0.148 HD
HETATM   14  C   LIG    1       63.959  49.547  47.653  0.00  0.00    +0.220 C 
BRANCH  14  15
HETATM   15  S   LIG    1       62.672  49.219  48.732  0.00  0.00    -0.137 S 
HETATM   16  H   LIG    1       62.594  49.541  49.623  0.00  0.00    +0.105 HD
ENDBRANCH  14  15
ENDBRANCH   7   9
TORSDOF 2

ENDMDL
