MODEL 1
REMARK VINA RESULT:      -5.2      0.000      0.000



ROOT
HETATM    1  C   LIG    1       44.271  28.796  51.633  0.00  0.00    +0.124 A 
HETATM    2  C   LIG    1       45.212  29.519  50.914  0.00  0.00    +0.047 A 
HETATM    3  C   LIG    1       46.077  30.373  51.570  0.00  0.00    +0.031 A 
HETATM    4  C   LIG    1       46.007  30.509  52.949  0.00  0.00    +0.078 A 
HETATM    5  C   LIG    1       45.063  29.784  53.671  0.00  0.00    +0.145 A 
HETATM    6  C   LIG    1       44.192  28.933  53.011  0.00  0.00    +0.093 A 
ENDROOT
BRANCH   4   7
HETATM    7  N   LIG    1       46.887  31.377  53.615  0.00  0.00    -0.275 N 
HETATM    8  C   LIG    1       46.613  32.682  53.993  0.00  0.00    +0.093 C 
HETATM    9  C   LIG    1       47.694  33.169  54.595  0.00  0.00    +0.085 C 
HETATM   10  N   LIG    1       48.661  32.176  54.604  0.00  0.00    -0.322 N 
HETATM   11  H   LIG    1       49.551  32.251  54.980  0.00  0.00    +0.148 HD
HETATM   12  C   LIG    1       48.144  31.085  54.004  0.00  0.00    +0.220 C 
BRANCH  12  13
HETATM   13  S   LIG    1       48.948  29.592  53.767  0.00  0.00    -0.137 S 
HETATM   14  H   LIG    1       49.531  29.381  53.046  0.00  0.00    +0.105 HD
ENDBRANCH  12  13
ENDBRANCH   4   7
BRANCH   1  16
HETATM   15  C   LIG    1       43.924  26.632  51.167  0.00  0.00    +0.277 C 
HETATM   16  O   LIG    1       43.419  27.957  50.985  0.00  0.00    -0.495 OA
ENDBRANCH   1  16
BRANCH   5  17
HETATM   17  O   LIG    1       44.992  29.915  55.022  0.00  0.00    -0.493 OA
HETATM   18  C   LIG    1       43.822  30.686  55.302  0.00  0.00    +0.277 C 
ENDBRANCH   5  17
TORSDOF 4

ENDMDL
MODEL 2
REMARK VINA RESULT:      -5.2      1.313      2.277



ROOT
HETATM    1  C   LIG    1       44.043  28.538  52.225  0.00  0.00    +0.124 A 
HETATM    2  C   LIG    1       43.918  28.886  53.562  0.00  0.00    +0.047 A 
HETATM    3  C   LIG    1       44.812  29.769  54.135  0.00  0.00    +0.031 A 
HETATM    4  C   LIG    1       45.838  30.310  53.374  0.00  0.00    +0.078 A 
HETATM    5  C   LIG    1       45.965  29.962  52.031  0.00  0.00    +0.145 A 
HETATM    6  C   LIG    1       45.071  29.071  51.461  0.00  0.00    +0.093 A 
ENDROOT
BRANCH   4   7
HETATM    7  N   LIG    1       46.747  31.208  53.956  0.00  0.00    -0.275 N 
HETATM    8  C   LIG    1       46.607  32.586  54.014  0.00  0.00    +0.093 C 
HETATM    9  C   LIG    1       47.670  33.079  54.642  0.00  0.00    +0.085 C 
HETATM   10  N   LIG    1       48.492  32.018  54.986  0.00  0.00    -0.322 N 
HETATM   11  H   LIG    1       49.339  32.082  55.454  0.00  0.00    +0.148 HD
HETATM   12  C   LIG    1       47.905  30.881  54.562  0.00  0.00    +0.220 C 
BRANCH  12  13
HETATM   13  S   LIG    1       48.528  29.297  54.751  0.00  0.00    -0.137 S 
HETATM   14  H   LIG    1       48.261  28.530  54.258  0.00  0.00    +0.105 HD
ENDBRANCH  12  13
ENDBRANCH   4   7
BRANCH   1  16
HETATM   15  C   LIG    1       43.935  26.618  51.076  0.00  0.00    +0.277 C 
HETATM   16  O   LIG    1       43.162  27.667  51.664  0.00  0.00    -0.495 OA
ENDBRANCH   1  16
BRANCH   5  17
HETATM   17  O   LIG    1       46.970  30.490  51.283  0.00  0.00    -0.493 OA
HETATM   18  C   LIG    1       47.812  29.403  50.895  0.00  0.00    +0.277 C 
ENDBRANCH   5  17
TORSDOF 4

ENDMDL
MODEL 3
REMARK VINA RESULT:      -4.9     24.643     25.877



ROOT
HETATM    1  C   LIG    1       58.783  50.939  44.942  0.00  0.00    +0.124 A 
HETATM    2  C   LIG    1       58.323  49.891  45.728  0.00  0.00    +0.047 A 
HETATM    3  C   LIG    1       59.208  49.167  46.503  0.00  0.00    +0.031 A 
HETATM    4  C   LIG    1       60.558  49.485  46.498  0.00  0.00    +0.078 A 
HETATM    5  C   LIG    1       61.021  50.536  45.709  0.00  0.00    +0.145 A 
HETATM    6  C   LIG    1       60.133  51.257  44.928  0.00  0.00    +0.093 A 
ENDROOT
BRANCH   4   7
HETATM    7  N   LIG    1       61.457  48.749  47.286  0.00  0.00    -0.275 N 
HETATM    8  C   LIG    1       61.644  48.887  48.653  0.00  0.00    +0.093 C 
HETATM    9  C   LIG    1       62.576  48.016  49.027  0.00  0.00    +0.085 C 
HETATM   10  N   LIG    1       62.986  47.319  47.902  0.00  0.00    -0.322 N 
HETATM   11  H   LIG    1       63.658  46.620  47.878  0.00  0.00    +0.148 HD
HETATM   12  C   LIG    1       62.284  47.780  46.847  0.00  0.00    +0.220 C 
BRANCH  12  13
HETATM   13  S   LIG    1       62.427  47.236  45.230  0.00  0.00    -0.137 S 
HETATM   14  H   LIG    1       61.869  47.491  44.504  0.00  0.00    +0.105 HD
ENDBRANCH  12  13
ENDBRANCH   4   7
BRANCH   1  16
HETATM   15  C   LIG    1       58.693  52.488  43.328  0.00  0.00    +0.277 C 
HETATM   16  O   LIG    1       57.910  51.649  44.180  0.00  0.00    -0.495 OA
ENDBRANCH   1  16
BRANCH   5  17
HETATM   17  O   LIG    1       62.344  50.850  45.701  0.00  0.00    -0.493 OA
HETATM   18  C   LIG    1       62.492  51.995  44.860  0.00  0.00    +0.277 C 
ENDBRANCH   5  17
TORSDOF 4

ENDMDL
MODEL 4
REMARK VINA RESULT:      -4.9     24.198     26.143



ROOT
HETATM    1  C   LIG    1       60.411  52.005  44.555  0.00  0.00    +0.124 A 
HETATM    2  C   LIG    1       61.770  52.010  44.836  0.00  0.00    +0.047 A 
HETATM    3  C   LIG    1       62.325  50.991  45.585  0.00  0.00    +0.031 A 
HETATM    4  C   LIG    1       61.526  49.960  46.057  0.00  0.00    +0.078 A 
HETATM    5  C   LIG    1       60.162  49.954  45.775  0.00  0.00    +0.145 A 
HETATM    6  C   LIG    1       59.606  50.980  45.029  0.00  0.00    +0.093 A 
ENDROOT
BRANCH   4   7
HETATM    7  N   LIG    1       62.091  48.924  46.818  0.00  0.00    -0.275 N 
HETATM    8  C   LIG    1       62.238  48.913  48.197  0.00  0.00    +0.093 C 
HETATM    9  C   LIG    1       62.814  47.764  48.537  0.00  0.00    +0.085 C 
HETATM   10  N   LIG    1       63.035  47.038  47.377  0.00  0.00    -0.322 N 
HETATM   11  H   LIG    1       63.443  46.160  47.324  0.00  0.00    +0.148 HD
HETATM   12  C   LIG    1       62.580  47.765  46.337  0.00  0.00    +0.220 C 
BRANCH  12  13
HETATM   13  S   LIG    1       62.626  47.300  44.690  0.00  0.00    -0.137 S 
HETATM   14  H   LIG    1       63.344  47.455  44.086  0.00  0.00    +0.105 HD
ENDBRANCH  12  13
ENDBRANCH   4   7
BRANCH   1  16
HETATM   15  C   LIG    1       58.646  52.507  43.271  0.00  0.00    +0.277 C 
HETATM   16  O   LIG    1       59.867  53.010  43.819  0.00  0.00    -0.495 OA
ENDBRANCH   1  16
BRANCH   5  17
HETATM   17  O   LIG    1       59.376  48.945  46.237  0.00  0.00    -0.493 OA
HETATM   18  C   LIG    1       58.610  49.479  47.318  0.00  0.00    +0.277 C 
ENDBRANCH   5  17
TORSDOF 4

ENDMDL
MODEL 5
REMARK VINA RESULT:      -4.7     28.626     30.048



ROOT
HETATM    1  C   LIG    1       35.481  51.485  68.396  0.00  0.00    +0.124 A 
HETATM    2  C   LIG    1       35.795  52.154  67.222  0.00  0.00    +0.047 A 
HETATM    3  C   LIG    1       36.378  53.405  67.273  0.00  0.00    +0.031 A 
HETATM    4  C   LIG    1       36.653  53.995  68.498  0.00  0.00    +0.078 A 
HETATM    5  C   LIG    1       36.339  53.324  69.677  0.00  0.00    +0.145 A 
HETATM    6  C   LIG    1       35.748  52.072  69.624  0.00  0.00    +0.093 A 
ENDROOT
BRANCH   4   7
HETATM    7  N   LIG    1       37.246  55.266  68.549  0.00  0.00    -0.275 N 
HETATM    8  C   LIG    1       38.607  55.528  68.616  0.00  0.00    +0.093 C 
HETATM    9  C   LIG    1       38.767  56.847  68.648  0.00  0.00    +0.085 C 
HETATM   10  N   LIG    1       37.511  57.431  68.601  0.00  0.00    -0.322 N 
HETATM   11  H   LIG    1       37.325  58.383  68.610  0.00  0.00    +0.148 HD
HETATM   12  C   LIG    1       36.595  56.445  68.535  0.00  0.00    +0.220 C 
BRANCH  12  13
HETATM   13  S   LIG    1       34.897  56.654  68.459  0.00  0.00    -0.137 S 
HETATM   14  H   LIG    1       34.247  56.100  68.875  0.00  0.00    +0.105 HD
ENDBRANCH  12  13
ENDBRANCH   4   7
BRANCH   1  16
HETATM   15  C   LIG    1       34.148  50.100  69.545  0.00  0.00    +0.277 C 
HETATM   16  O   LIG    1       34.906  50.254  68.343  0.00  0.00    -0.495 OA
ENDBRANCH   1  16
BRANCH   5  17
HETATM   17  O   LIG    1       36.606  53.899  70.880  0.00  0.00    -0.493 OA
HETATM   18  C   LIG    1       36.607  52.850  71.849  0.00  0.00    +0.277 C 
ENDBRANCH   5  17
TORSDOF 4

ENDMDL
MODEL 6
REMARK VINA RESULT:      -4.7     25.511     26.714



ROOT
HETATM    1  C   LIG    1       60.626  51.530  44.426  0.00  0.00    +0.124 A 
HETATM    2  C   LIG    1       59.903  50.353  44.293  0.00  0.00    +0.047 A 
HETATM    3  C   LIG    1       60.534  49.133  44.437  0.00  0.00    +0.031 A 
HETATM    4  C   LIG    1       61.892  49.081  44.716  0.00  0.00    +0.078 A 
HETATM    5  C   LIG    1       62.618  50.261  44.850  0.00  0.00    +0.145 A 
HETATM    6  C   LIG    1       61.985  51.484  44.699  0.00  0.00    +0.093 A 
ENDROOT
BRANCH   4   7
HETATM    7  N   LIG    1       62.532  47.840  44.862  0.00  0.00    -0.275 N 
HETATM    8  C   LIG    1       63.068  47.074  43.838  0.00  0.00    +0.093 C 
HETATM    9  C   LIG    1       63.584  45.974  44.378  0.00  0.00    +0.085 C 
HETATM   10  N   LIG    1       63.381  46.035  45.747  0.00  0.00    -0.322 N 
HETATM   11  H   LIG    1       63.655  45.367  46.394  0.00  0.00    +0.148 HD
HETATM   12  C   LIG    1       62.740  47.189  46.023  0.00  0.00    +0.220 C 
BRANCH  12  13
HETATM   13  S   LIG    1       62.263  47.727  47.577  0.00  0.00    -0.137 S 
HETATM   14  H   LIG    1       62.846  47.983  48.283  0.00  0.00    +0.105 HD
ENDBRANCH  12  13
ENDBRANCH   4   7
BRANCH   1  16
HETATM   15  C   LIG    1       58.770  52.477  43.604  0.00  0.00    +0.277 C 
HETATM   16  O   LIG    1       60.003  52.729  44.283  0.00  0.00    -0.495 OA
ENDBRANCH   1  16
BRANCH   5  17
HETATM   17  O   LIG    1       63.950  50.214  45.122  0.00  0.00    -0.493 OA
HETATM   18  C   LIG    1       64.143  50.902  46.360  0.00  0.00    +0.277 C 
ENDBRANCH   5  17
TORSDOF 4

ENDMDL
MODEL 7
REMARK VINA RESULT:      -4.6     28.390     30.164



ROOT
HETATM    1  C   LIG    1       34.662  51.194  68.412  0.00  0.00    +0.124 A 
HETATM    2  C   LIG    1       33.915  51.881  69.358  0.00  0.00    +0.047 A 
HETATM    3  C   LIG    1       34.094  53.239  69.529  0.00  0.00    +0.031 A 
HETATM    4  C   LIG    1       35.021  53.921  68.754  0.00  0.00    +0.078 A 
HETATM    5  C   LIG    1       35.771  53.233  67.804  0.00  0.00    +0.145 A 
HETATM    6  C   LIG    1       35.595  51.869  67.639  0.00  0.00    +0.093 A 
ENDROOT
BRANCH   4   7
HETATM    7  N   LIG    1       35.202  55.302  68.927  0.00  0.00    -0.275 N 
HETATM    8  C   LIG    1       34.496  56.304  68.278  0.00  0.00    +0.093 C 
HETATM    9  C   LIG    1       34.958  57.474  68.710  0.00  0.00    +0.085 C 
HETATM   10  N   LIG    1       35.958  57.223  69.635  0.00  0.00    -0.322 N 
HETATM   11  H   LIG    1       36.472  57.891  70.114  0.00  0.00    +0.148 HD
HETATM   12  C   LIG    1       36.087  55.886  69.758  0.00  0.00    +0.220 C 
BRANCH  12  13
HETATM   13  S   LIG    1       37.193  55.073  70.781  0.00  0.00    -0.137 S 
HETATM   14  H   LIG    1       38.136  55.194  70.793  0.00  0.00    +0.105 HD
ENDBRANCH  12  13
ENDBRANCH   4   7
BRANCH   1  16
HETATM   15  C   LIG    1       34.081  49.333  69.515  0.00  0.00    +0.277 C 
HETATM   16  O   LIG    1       34.485  49.856  68.248  0.00  0.00    -0.495 OA
ENDBRANCH   1  16
BRANCH   5  17
HETATM   17  O   LIG    1       36.682  53.897  67.043  0.00  0.00    -0.493 OA
HETATM   18  C   LIG    1       37.488  52.907  66.403  0.00  0.00    +0.277 C 
ENDBRANCH   5  17
TORSDOF 4

ENDMDL
MODEL 8
REMARK VINA RESULT:      -4.6     31.899     33.076



ROOT
HETATM    1  C   LIG    1       55.203  59.422  60.679  0.00  0.00    +0.124 A 
HETATM    2  C   LIG    1       55.915  60.460  60.096  0.00  0.00    +0.047 A 
HETATM    3  C   LIG    1       55.245  61.492  59.468  0.00  0.00    +0.031 A 
HETATM    4  C   LIG    1       53.859  61.493  59.420  0.00  0.00    +0.078 A 
HETATM    5  C   LIG    1       53.143  60.452  60.005  0.00  0.00    +0.145 A 
HETATM    6  C   LIG    1       53.817  59.415  60.628  0.00  0.00    +0.093 A 
ENDROOT
BRANCH   4   7
HETATM    7  N   LIG    1       53.178  62.543  58.782  0.00  0.00    -0.275 N 
HETATM    8  C   LIG    1       52.792  62.572  57.450  0.00  0.00    +0.093 C 
HETATM    9  C   LIG    1       52.176  63.730  57.230  0.00  0.00    +0.085 C 
HETATM   10  N   LIG    1       52.168  64.442  58.418  0.00  0.00    -0.322 N 
HETATM   11  H   LIG    1       51.784  65.323  58.552  0.00  0.00    +0.148 HD
HETATM   12  C   LIG    1       52.782  63.694  59.357  0.00  0.00    +0.220 C 
BRANCH  12  13
HETATM   13  S   LIG    1       53.024  64.136  60.994  0.00  0.00    -0.137 S 
HETATM   14  H   LIG    1       52.742  64.947  61.401  0.00  0.00    +0.105 HD
ENDBRANCH  12  13
ENDBRANCH   4   7
BRANCH   1  16
HETATM   15  C   LIG    1       56.814  59.008  62.179  0.00  0.00    +0.277 C 
HETATM   16  O   LIG    1       55.865  58.407  61.295  0.00  0.00    -0.495 OA
ENDBRANCH   1  16
BRANCH   5  17
HETATM   17  O   LIG    1       51.784  60.449  59.959  0.00  0.00    -0.493 OA
HETATM   18  C   LIG    1       51.325  60.680  61.291  0.00  0.00    +0.277 C 
ENDBRANCH   5  17
TORSDOF 4

ENDMDL
MODEL 9
REMARK VINA RESULT:      -4.5     20.729     21.476



ROOT
HETATM    1  C   LIG    1       30.940  40.061  46.413  0.00  0.00    +0.124 A 
HETATM    2  C   LIG    1       31.587  40.970  47.238  0.00  0.00    +0.047 A 
HETATM    3  C   LIG    1       30.873  41.983  47.848  0.00  0.00    +0.031 A 
HETATM    4  C   LIG    1       29.506  42.093  47.637  0.00  0.00    +0.078 A 
HETATM    5  C   LIG    1       28.856  41.182  46.809  0.00  0.00    +0.145 A 
HETATM    6  C   LIG    1       29.575  40.171  46.194  0.00  0.00    +0.093 A 
ENDROOT
BRANCH   4   7
HETATM    7  N   LIG    1       28.780  43.123  48.257  0.00  0.00    -0.275 N 
HETATM    8  C   LIG    1       28.318  43.120  49.565  0.00  0.00    +0.093 C 
HETATM    9  C   LIG    1       27.680  44.268  49.774  0.00  0.00    +0.085 C 
HETATM   10  N   LIG    1       27.732  45.005  48.602  0.00  0.00    -0.322 N 
HETATM   11  H   LIG    1       27.348  45.885  48.465  0.00  0.00    +0.148 HD
HETATM   12  C   LIG    1       28.416  44.288  47.688  0.00  0.00    +0.220 C 
BRANCH  12  13
HETATM   13  S   LIG    1       28.752  44.770  46.080  0.00  0.00    -0.137 S 
HETATM   14  H   LIG    1       29.568  44.628  45.613  0.00  0.00    +0.105 HD
ENDBRANCH  12  13
ENDBRANCH   4   7
BRANCH   1  16
HETATM   15  C   LIG    1       30.765  38.437  44.881  0.00  0.00    +0.277 C 
HETATM   16  O   LIG    1       31.646  39.066  45.814  0.00  0.00    -0.495 OA
ENDBRANCH   1  16
BRANCH   5  17
HETATM   17  O   LIG    1       27.516  41.287  46.600  0.00  0.00    -0.493 OA
HETATM   18  C   LIG    1       27.312  41.223  45.187  0.00  0.00    +0.277 C 
ENDBRANCH   5  17
TORSDOF 4

ENDMDL
