MODEL 1
REMARK VINA RESULT:      -5.3      0.000      0.000



ROOT
HETATM    1  C   LIG    1       62.243  51.636  45.190  0.00  0.00    +0.045 C 
HETATM    2  C   LIG    1       60.935  51.018  44.770  0.00  0.00    -0.029 A 
HETATM    3  C   LIG    1       59.895  51.821  44.344  0.00  0.00    +0.006 A 
HETATM    4  C   LIG    1       58.695  51.255  43.958  0.00  0.00    +0.020 A 
HETATM    5  C   LIG    1       58.531  49.881  43.997  0.00  0.00    +0.043 A 
HETATM    6 CL   LIG    1       57.021  49.175  43.510  0.00  0.00    -0.083 Cl
HETATM    7  C   LIG    1       59.568  49.072  44.421  0.00  0.00    +0.043 A 
HETATM    8  C   LIG    1       60.776  49.638  44.804  0.00  0.00    +0.040 A 
ENDROOT
BRANCH   8   9
HETATM    9  N   LIG    1       61.829  48.821  45.234  0.00  0.00    -0.277 N 
HETATM   10  C   LIG    1       62.863  48.339  44.443  0.00  0.00    +0.093 C 
HETATM   11  C   LIG    1       63.658  47.604  45.213  0.00  0.00    +0.085 C 
HETATM   12  N   LIG    1       63.136  47.615  46.498  0.00  0.00    -0.322 N 
HETATM   13  H   LIG    1       63.511  47.162  47.270  0.00  0.00    +0.148 HD
HETATM   14  C   LIG    1       62.019  48.371  46.490  0.00  0.00    +0.220 C 
BRANCH  14  15
HETATM   15  S   LIG    1       61.014  48.692  47.836  0.00  0.00    -0.137 S 
HETATM   16  H   LIG    1       60.556  49.506  48.008  0.00  0.00    +0.105 HD
ENDBRANCH  14  15
ENDBRANCH   8   9
TORSDOF 2

ENDMDL
MODEL 2
REMARK VINA RESULT:      -5.0      1.981      2.553



ROOT
HETATM    1  C   LIG    1       61.861  48.949  47.876  0.00  0.00    +0.045 C 
HETATM    2  C   LIG    1       60.737  49.140  46.891  0.00  0.00    -0.029 A 
HETATM    3  C   LIG    1       59.432  49.229  47.339  0.00  0.00    +0.006 A 
HETATM    4  C   LIG    1       58.401  49.404  46.437  0.00  0.00    +0.020 A 
HETATM    5  C   LIG    1       58.669  49.493  45.082  0.00  0.00    +0.043 A 
HETATM    6 CL   LIG    1       57.369  49.714  43.952  0.00  0.00    -0.083 Cl
HETATM    7  C   LIG    1       59.972  49.406  44.628  0.00  0.00    +0.043 A 
HETATM    8  C   LIG    1       61.011  49.235  45.533  0.00  0.00    +0.040 A 
ENDROOT
BRANCH   8   9
HETATM    9  N   LIG    1       62.331  49.147  45.076  0.00  0.00    -0.277 N 
HETATM   10  C   LIG    1       63.009  47.976  44.762  0.00  0.00    +0.093 C 
HETATM   11  C   LIG    1       64.234  48.307  44.368  0.00  0.00    +0.085 C 
HETATM   12  N   LIG    1       64.344  49.688  44.428  0.00  0.00    -0.322 N 
HETATM   13  H   LIG    1       65.129  50.208  44.196  0.00  0.00    +0.148 HD
HETATM   14  C   LIG    1       63.166  50.182  44.859  0.00  0.00    +0.220 C 
BRANCH  14  15
HETATM   15  S   LIG    1       62.798  51.836  45.098  0.00  0.00    -0.137 S 
HETATM   16  H   LIG    1       63.374  52.568  44.911  0.00  0.00    +0.105 HD
ENDBRANCH  14  15
ENDBRANCH   8   9
TORSDOF 2

ENDMDL
MODEL 3
REMARK VINA RESULT:      -4.8      2.873      4.622



ROOT
HETATM    1  C   LIG    1       61.485  47.954  44.130  0.00  0.00    +0.045 C 
HETATM    2  C   LIG    1       62.201  49.192  44.602  0.00  0.00    -0.029 A 
HETATM    3  C   LIG    1       63.582  49.239  44.591  0.00  0.00    +0.006 A 
HETATM    4  C   LIG    1       64.241  50.374  45.024  0.00  0.00    +0.020 A 
HETATM    5  C   LIG    1       63.520  51.468  45.471  0.00  0.00    +0.043 A 
HETATM    6 CL   LIG    1       64.352  52.892  46.013  0.00  0.00    -0.083 Cl
HETATM    7  C   LIG    1       62.139  51.427  45.484  0.00  0.00    +0.043 A 
HETATM    8  C   LIG    1       61.475  50.290  45.044  0.00  0.00    +0.040 A 
ENDROOT
BRANCH   8   9
HETATM    9  N   LIG    1       60.075  50.246  45.056  0.00  0.00    -0.277 N 
HETATM   10  C   LIG    1       59.236  50.716  44.055  0.00  0.00    +0.093 C 
HETATM   11  C   LIG    1       57.982  50.494  44.436  0.00  0.00    +0.085 C 
HETATM   12  N   LIG    1       58.016  49.882  45.680  0.00  0.00    -0.322 N 
HETATM   13  H   LIG    1       57.245  49.603  46.199  0.00  0.00    +0.148 HD
HETATM   14  C   LIG    1       59.307  49.733  46.038  0.00  0.00    +0.220 C 
BRANCH  14  15
HETATM   15  S   LIG    1       59.872  49.028  47.491  0.00  0.00    -0.137 S 
HETATM   16  H   LIG    1       60.035  49.486  48.306  0.00  0.00    +0.105 HD
ENDBRANCH  14  15
ENDBRANCH   8   9
TORSDOF 2

ENDMDL
MODEL 4
REMARK VINA RESULT:      -4.8      2.579      3.339



ROOT
HETATM    1  C   LIG    1       59.831  49.169  44.382  0.00  0.00    +0.045 C 
HETATM    2  C   LIG    1       61.019  50.080  44.549  0.00  0.00    -0.029 A 
HETATM    3  C   LIG    1       60.859  51.450  44.454  0.00  0.00    +0.006 A 
HETATM    4  C   LIG    1       61.948  52.286  44.607  0.00  0.00    +0.020 A 
HETATM    5  C   LIG    1       63.202  51.756  44.857  0.00  0.00    +0.043 A 
HETATM    6 CL   LIG    1       64.567  52.812  45.050  0.00  0.00    -0.083 Cl
HETATM    7  C   LIG    1       63.368  50.388  44.954  0.00  0.00    +0.043 A 
HETATM    8  C   LIG    1       62.275  49.545  44.806  0.00  0.00    +0.040 A 
ENDROOT
BRANCH   8   9
HETATM    9  N   LIG    1       62.439  48.158  44.904  0.00  0.00    -0.277 N 
HETATM   10  C   LIG    1       62.720  47.295  43.853  0.00  0.00    +0.093 C 
HETATM   11  C   LIG    1       62.800  46.064  44.347  0.00  0.00    +0.085 C 
HETATM   12  N   LIG    1       62.573  46.136  45.713  0.00  0.00    -0.322 N 
HETATM   13  H   LIG    1       62.572  45.389  46.332  0.00  0.00    +0.148 HD
HETATM   14  C   LIG    1       62.360  47.429  46.034  0.00  0.00    +0.220 C 
BRANCH  14  15
HETATM   15  S   LIG    1       62.034  48.035  47.600  0.00  0.00    -0.137 S 
HETATM   16  H   LIG    1       61.558  47.581  48.286  0.00  0.00    +0.105 HD
ENDBRANCH  14  15
ENDBRANCH   8   9
TORSDOF 2

ENDMDL
MODEL 5
REMARK VINA RESULT:      -4.6      2.371      2.932



ROOT
HETATM    1  C   LIG    1       62.451  47.760  44.494  0.00  0.00    +0.045 C 
HETATM    2  C   LIG    1       61.693  49.062  44.509  0.00  0.00    -0.029 A 
HETATM    3  C   LIG    1       60.355  49.087  44.167  0.00  0.00    +0.006 A 
HETATM    4  C   LIG    1       59.659  50.281  44.180  0.00  0.00    +0.020 A 
HETATM    5  C   LIG    1       60.299  51.455  44.536  0.00  0.00    +0.043 A 
HETATM    6 CL   LIG    1       59.420  52.952  44.552  0.00  0.00    -0.083 Cl
HETATM    7  C   LIG    1       61.638  51.436  44.880  0.00  0.00    +0.043 A 
HETATM    8  C   LIG    1       62.338  50.237  44.873  0.00  0.00    +0.040 A 
ENDROOT
BRANCH   8   9
HETATM    9  N   LIG    1       63.694  50.215  45.221  0.00  0.00    -0.277 N 
HETATM   10  C   LIG    1       64.758  50.478  44.369  0.00  0.00    +0.093 C 
HETATM   11  C   LIG    1       65.881  50.356  45.070  0.00  0.00    +0.085 C 
HETATM   12  N   LIG    1       65.538  50.016  46.370  0.00  0.00    -0.322 N 
HETATM   13  H   LIG    1       66.158  49.864  47.101  0.00  0.00    +0.148 HD
HETATM   14  C   LIG    1       64.194  49.940  46.442  0.00  0.00    +0.220 C 
BRANCH  14  15
HETATM   15  S   LIG    1       63.283  49.553  47.837  0.00  0.00    -0.137 S 
HETATM   16  H   LIG    1       62.696  48.812  47.932  0.00  0.00    +0.105 HD
ENDBRANCH  14  15
ENDBRANCH   8   9
TORSDOF 2

ENDMDL
MODEL 6
REMARK VINA RESULT:      -4.6      2.503      4.182



ROOT
HETATM    1  C   LIG    1       62.553  51.409  45.424  0.00  0.00    +0.045 C 
HETATM    2  C   LIG    1       62.830  50.002  44.962  0.00  0.00    -0.029 A 
HETATM    3  C   LIG    1       64.124  49.611  44.675  0.00  0.00    +0.006 A 
HETATM    4  C   LIG    1       64.380  48.321  44.251  0.00  0.00    +0.020 A 
HETATM    5  C   LIG    1       63.342  47.416  44.113  0.00  0.00    +0.043 A 
HETATM    6 CL   LIG    1       63.669  45.796  43.580  0.00  0.00    -0.083 Cl
HETATM    7  C   LIG    1       62.046  47.801  44.399  0.00  0.00    +0.043 A 
HETATM    8  C   LIG    1       61.787  49.095  44.831  0.00  0.00    +0.040 A 
ENDROOT
BRANCH   8   9
HETATM    9  N   LIG    1       60.475  49.488  45.121  0.00  0.00    -0.277 N 
HETATM   10  C   LIG    1       59.590  50.091  44.238  0.00  0.00    +0.093 C 
HETATM   11  C   LIG    1       58.450  50.309  44.886  0.00  0.00    +0.085 C 
HETATM   12  N   LIG    1       58.603  49.846  46.185  0.00  0.00    -0.322 N 
HETATM   13  H   LIG    1       57.930  49.874  46.883  0.00  0.00    +0.148 HD
HETATM   14  C   LIG    1       59.848  49.342  46.305  0.00  0.00    +0.220 C 
BRANCH  14  15
HETATM   15  S   LIG    1       60.519  48.649  47.719  0.00  0.00    -0.137 S 
HETATM   16  H   LIG    1       60.691  49.103  48.535  0.00  0.00    +0.105 HD
ENDBRANCH  14  15
ENDBRANCH   8   9
TORSDOF 2

ENDMDL
MODEL 7
REMARK VINA RESULT:      -4.6     35.688     36.716



ROOT
HETATM    1  C   LIG    1       39.342  19.245  56.736  0.00  0.00    +0.045 C 
HETATM    2  C   LIG    1       40.353  20.312  57.069  0.00  0.00    -0.029 A 
HETATM    3  C   LIG    1       40.762  20.493  58.376  0.00  0.00    +0.006 A 
HETATM    4  C   LIG    1       41.689  21.471  58.682  0.00  0.00    +0.020 A 
HETATM    5  C   LIG    1       42.210  22.273  57.682  0.00  0.00    +0.043 A 
HETATM    6 CL   LIG    1       43.374  23.500  58.071  0.00  0.00    -0.083 Cl
HETATM    7  C   LIG    1       41.804  22.096  56.372  0.00  0.00    +0.043 A 
HETATM    8  C   LIG    1       40.878  21.110  56.061  0.00  0.00    +0.040 A 
ENDROOT
BRANCH   8   9
HETATM    9  N   LIG    1       40.465  20.928  54.736  0.00  0.00    -0.277 N 
HETATM   10  C   LIG    1       39.453  21.629  54.093  0.00  0.00    +0.093 C 
HETATM   11  C   LIG    1       39.363  21.170  52.850  0.00  0.00    +0.085 C 
HETATM   12  N   LIG    1       40.316  20.175  52.693  0.00  0.00    -0.322 N 
HETATM   13  H   LIG    1       40.479  19.664  51.885  0.00  0.00    +0.148 HD
HETATM   14  C   LIG    1       40.984  20.047  53.858  0.00  0.00    +0.220 C 
BRANCH  14  15
HETATM   15  S   LIG    1       42.259  18.950  54.170  0.00  0.00    -0.137 S 
HETATM   16  H   LIG    1       42.940  18.698  53.558  0.00  0.00    +0.105 HD
ENDBRANCH  14  15
ENDBRANCH   8   9
TORSDOF 2

ENDMDL
MODEL 8
REMARK VINA RESULT:      -4.6      2.863      3.676



ROOT
HETATM    1  C   LIG    1       59.738  49.480  46.440  0.00  0.00    +0.045 C 
HETATM    2  C   LIG    1       60.860  50.309  45.872  0.00  0.00    -0.029 A 
HETATM    3  C   LIG    1       60.585  51.328  44.981  0.00  0.00    +0.006 A 
HETATM    4  C   LIG    1       61.614  52.089  44.460  0.00  0.00    +0.020 A 
HETATM    5  C   LIG    1       62.923  51.834  44.829  0.00  0.00    +0.043 A 
HETATM    6 CL   LIG    1       64.212  52.794  44.172  0.00  0.00    -0.083 Cl
HETATM    7  C   LIG    1       63.205  50.817  45.721  0.00  0.00    +0.043 A 
HETATM    8  C   LIG    1       62.172  50.055  46.250  0.00  0.00    +0.040 A 
ENDROOT
BRANCH   8   9
HETATM    9  N   LIG    1       62.454  49.023  47.154  0.00  0.00    -0.277 N 
HETATM   10  C   LIG    1       62.488  49.138  48.538  0.00  0.00    +0.093 C 
HETATM   11  C   LIG    1       62.790  47.945  49.039  0.00  0.00    +0.085 C 
HETATM   12  N   LIG    1       62.949  47.065  47.980  0.00  0.00    -0.322 N 
HETATM   13  H   LIG    1       63.171  46.123  48.050  0.00  0.00    +0.148 HD
HETATM   14  C   LIG    1       62.733  47.744  46.835  0.00  0.00    +0.220 C 
BRANCH  14  15
HETATM   15  S   LIG    1       62.811  47.097  45.253  0.00  0.00    -0.137 S 
HETATM   16  H   LIG    1       62.210  47.288  44.543  0.00  0.00    +0.105 HD
ENDBRANCH  14  15
ENDBRANCH   8   9
TORSDOF 2

ENDMDL
MODEL 9
REMARK VINA RESULT:      -4.6     11.481     13.249



ROOT
HETATM    1  C   LIG    1       58.889  57.608  34.775  0.00  0.00    +0.045 C 
HETATM    2  C   LIG    1       58.223  56.887  35.919  0.00  0.00    -0.029 A 
HETATM    3  C   LIG    1       58.656  55.629  36.291  0.00  0.00    +0.006 A 
HETATM    4  C   LIG    1       58.046  54.968  37.339  0.00  0.00    +0.020 A 
HETATM    5  C   LIG    1       56.998  55.563  38.020  0.00  0.00    +0.043 A 
HETATM    6 CL   LIG    1       56.235  54.728  39.337  0.00  0.00    -0.083 Cl
HETATM    7  C   LIG    1       56.560  56.821  37.653  0.00  0.00    +0.043 A 
HETATM    8  C   LIG    1       57.176  57.490  36.604  0.00  0.00    +0.040 A 
ENDROOT
BRANCH   8   9
HETATM    9  N   LIG    1       56.735  58.765  36.230  0.00  0.00    -0.277 N 
HETATM   10  C   LIG    1       57.253  59.972  36.680  0.00  0.00    +0.093 C 
HETATM   11  C   LIG    1       56.571  60.952  36.097  0.00  0.00    +0.085 C 
HETATM   12  N   LIG    1       55.615  60.376  35.274  0.00  0.00    -0.322 N 
HETATM   13  H   LIG    1       54.974  60.853  34.723  0.00  0.00    +0.148 HD
HETATM   14  C   LIG    1       55.737  59.036  35.365  0.00  0.00    +0.220 C 
BRANCH  14  15
HETATM   15  S   LIG    1       54.784  57.882  34.537  0.00  0.00    -0.137 S 
HETATM   16  H   LIG    1       54.205  58.059  33.805  0.00  0.00    +0.105 HD
ENDBRANCH  14  15
ENDBRANCH   8   9
TORSDOF 2

ENDMDL
