MODEL 1
REMARK VINA RESULT:      -4.9      0.000      0.000



ROOT
HETATM    1  C   LIG    1       58.813  49.620  45.833  0.00  0.00    +0.220 C 
HETATM    2  N   LIG    1       57.535  49.479  45.435  0.00  0.00    -0.322 N 
HETATM    3  H   LIG    1       56.805  49.133  45.974  0.00  0.00    +0.148 HD
HETATM    4  C   LIG    1       57.442  49.913  44.121  0.00  0.00    +0.085 C 
HETATM    5  C   LIG    1       58.650  50.309  43.736  0.00  0.00    +0.093 C 
HETATM    6  N   LIG    1       59.518  50.135  44.805  0.00  0.00    -0.278 N 
ENDROOT
BRANCH   6   7
HETATM    7  C   LIG    1       60.886  50.432  44.811  0.00  0.00    +0.036 A 
HETATM    8  C   LIG    1       61.312  51.743  44.989  0.00  0.00    +0.024 A 
HETATM    9  C   LIG    1       62.663  52.034  44.995  0.00  0.00    +0.016 A 
HETATM   10  C   LIG    1       63.590  51.022  44.824  0.00  0.00    +0.013 A 
HETATM   11  I   LIG    1       65.637  51.467  44.834  0.00  0.00    -0.044 I 
HETATM   12  C   LIG    1       63.169  49.716  44.647  0.00  0.00    +0.016 A 
HETATM   13  C   LIG    1       61.820  49.418  44.646  0.00  0.00    +0.024 A 
ENDBRANCH   6   7
BRANCH   1  14
HETATM   14  S   LIG    1       59.436  49.223  47.377  0.00  0.00    -0.137 S 
HETATM   15  H   LIG    1       59.715  48.360  47.660  0.00  0.00    +0.105 HD
ENDBRANCH   1  14
TORSDOF 2

ENDMDL
MODEL 2
REMARK VINA RESULT:      -4.8     35.757     36.979



ROOT
HETATM    1  C   LIG    1       42.010  21.567  58.621  0.00  0.00    +0.220 C 
HETATM    2  N   LIG    1       42.500  22.557  59.392  0.00  0.00    -0.322 N 
HETATM    3  H   LIG    1       42.515  22.571  60.362  0.00  0.00    +0.148 HD
HETATM    4  C   LIG    1       42.979  23.555  58.556  0.00  0.00    +0.085 C 
HETATM    5  C   LIG    1       42.778  23.168  57.301  0.00  0.00    +0.093 C 
HETATM    6  N   LIG    1       42.176  21.919  57.331  0.00  0.00    -0.278 N 
ENDROOT
BRANCH   6   7
HETATM    7  C   LIG    1       41.798  21.160  56.216  0.00  0.00    +0.036 A 
HETATM    8  C   LIG    1       40.590  21.417  55.577  0.00  0.00    +0.024 A 
HETATM    9  C   LIG    1       40.219  20.668  54.478  0.00  0.00    +0.016 A 
HETATM   10  C   LIG    1       41.048  19.663  54.013  0.00  0.00    +0.013 A 
HETATM   11  I   LIG    1       40.481  18.530  52.344  0.00  0.00    -0.044 I 
HETATM   12  C   LIG    1       42.250  19.405  54.646  0.00  0.00    +0.016 A 
HETATM   13  C   LIG    1       42.629  20.154  55.743  0.00  0.00    +0.024 A 
ENDBRANCH   6   7
BRANCH   1  14
HETATM   14  S   LIG    1       41.307  20.111  59.183  0.00  0.00    -0.137 S 
HETATM   15  H   LIG    1       41.224  19.846  60.092  0.00  0.00    +0.105 HD
ENDBRANCH   1  14
TORSDOF 2

ENDMDL
MODEL 3
REMARK VINA RESULT:      -4.6      3.571      5.226



ROOT
HETATM    1  C   LIG    1       64.447  51.218  46.124  0.00  0.00    +0.220 C 
HETATM    2  N   LIG    1       65.626  51.850  45.970  0.00  0.00    -0.322 N 
HETATM    3  H   LIG    1       66.386  51.794  46.571  0.00  0.00    +0.148 HD
HETATM    4  C   LIG    1       65.564  52.597  44.803  0.00  0.00    +0.085 C 
HETATM    5  C   LIG    1       64.364  52.414  44.264  0.00  0.00    +0.093 C 
HETATM    6  N   LIG    1       63.656  51.546  45.083  0.00  0.00    -0.278 N 
ENDROOT
BRANCH   6   7
HETATM    7  C   LIG    1       62.346  51.098  44.870  0.00  0.00    +0.036 A 
HETATM    8  C   LIG    1       61.285  51.991  44.940  0.00  0.00    +0.024 A 
HETATM    9  C   LIG    1       59.994  51.546  44.729  0.00  0.00    +0.016 A 
HETATM   10  C   LIG    1       59.759  50.213  44.450  0.00  0.00    +0.013 A 
HETATM   11  I   LIG    1       57.799  49.542  44.132  0.00  0.00    -0.044 I 
HETATM   12  C   LIG    1       60.813  49.320  44.381  0.00  0.00    +0.016 A 
HETATM   13  C   LIG    1       62.106  49.760  44.584  0.00  0.00    +0.024 A 
ENDBRANCH   6   7
BRANCH   1  14
HETATM   14  S   LIG    1       64.027  50.173  47.414  0.00  0.00    -0.137 S 
HETATM   15  H   LIG    1       63.458  50.389  48.143  0.00  0.00    +0.105 HD
ENDBRANCH   1  14
TORSDOF 2

ENDMDL
MODEL 4
REMARK VINA RESULT:      -4.4     16.724     17.955



ROOT
HETATM    1  C   LIG    1       57.807  34.279  39.772  0.00  0.00    +0.220 C 
HETATM    2  N   LIG    1       58.649  33.303  39.383  0.00  0.00    -0.322 N 
HETATM    3  H   LIG    1       59.617  33.363  39.352  0.00  0.00    +0.148 HD
HETATM    4  C   LIG    1       57.891  32.195  39.033  0.00  0.00    +0.085 C 
HETATM    5  C   LIG    1       56.611  32.504  39.209  0.00  0.00    +0.093 C 
HETATM    6  N   LIG    1       56.547  33.808  39.679  0.00  0.00    -0.278 N 
ENDROOT
BRANCH   6   7
HETATM    7  C   LIG    1       55.379  34.514  39.992  0.00  0.00    +0.036 A 
HETATM    8  C   LIG    1       55.305  35.880  39.746  0.00  0.00    +0.024 A 
HETATM    9  C   LIG    1       54.152  36.574  40.055  0.00  0.00    +0.016 A 
HETATM   10  C   LIG    1       53.072  35.911  40.609  0.00  0.00    +0.013 A 
HETATM   11  I   LIG    1       51.324  36.969  41.076  0.00  0.00    -0.044 I 
HETATM   12  C   LIG    1       53.142  34.551  40.855  0.00  0.00    +0.016 A 
HETATM   13  C   LIG    1       54.291  33.851  40.543  0.00  0.00    +0.024 A 
ENDBRANCH   6   7
BRANCH   1  14
HETATM   14  S   LIG    1       58.258  35.843  40.301  0.00  0.00    -0.137 S 
HETATM   15  H   LIG    1       59.030  36.058  40.811  0.00  0.00    +0.105 HD
ENDBRANCH   1  14
TORSDOF 2

ENDMDL
MODEL 5
REMARK VINA RESULT:      -4.4      2.696      3.238



ROOT
HETATM    1  C   LIG    1       60.279  51.335  44.806  0.00  0.00    +0.220 C 
HETATM    2  N   LIG    1       59.110  51.913  44.474  0.00  0.00    -0.322 N 
HETATM    3  H   LIG    1       58.980  52.847  44.242  0.00  0.00    +0.148 HD
HETATM    4  C   LIG    1       58.121  50.941  44.522  0.00  0.00    +0.085 C 
HETATM    5  C   LIG    1       58.692  49.795  44.878  0.00  0.00    +0.093 C 
HETATM    6  N   LIG    1       60.048  50.030  45.054  0.00  0.00    -0.278 N 
ENDROOT
BRANCH   6   7
HETATM    7  C   LIG    1       61.006  49.081  45.431  0.00  0.00    +0.036 A 
HETATM    8  C   LIG    1       61.220  48.807  46.776  0.00  0.00    +0.024 A 
HETATM    9  C   LIG    1       62.165  47.870  47.147  0.00  0.00    +0.016 A 
HETATM   10  C   LIG    1       62.898  47.206  46.180  0.00  0.00    +0.013 A 
HETATM   11  I   LIG    1       64.331  45.786  46.746  0.00  0.00    -0.044 I 
HETATM   12  C   LIG    1       62.687  47.477  44.839  0.00  0.00    +0.016 A 
HETATM   13  C   LIG    1       61.739  48.409  44.463  0.00  0.00    +0.024 A 
ENDBRANCH   6   7
BRANCH   1  14
HETATM   14  S   LIG    1       61.799  52.119  44.892  0.00  0.00    -0.137 S 
HETATM   15  H   LIG    1       62.647  51.691  44.898  0.00  0.00    +0.105 HD
ENDBRANCH   1  14
TORSDOF 2

ENDMDL
MODEL 6
REMARK VINA RESULT:      -4.3      4.452      5.609



ROOT
HETATM    1  C   LIG    1       63.522  47.653  48.417  0.00  0.00    +0.220 C 
HETATM    2  N   LIG    1       64.297  47.564  49.514  0.00  0.00    -0.322 N 
HETATM    3  H   LIG    1       64.968  46.883  49.686  0.00  0.00    +0.148 HD
HETATM    4  C   LIG    1       63.970  48.614  50.358  0.00  0.00    +0.085 C 
HETATM    5  C   LIG    1       63.011  49.324  49.774  0.00  0.00    +0.093 C 
HETATM    6  N   LIG    1       62.725  48.732  48.553  0.00  0.00    -0.278 N 
ENDROOT
BRANCH   6   7
HETATM    7  C   LIG    1       61.771  49.172  47.627  0.00  0.00    +0.036 A 
HETATM    8  C   LIG    1       62.157  49.966  46.554  0.00  0.00    +0.024 A 
HETATM    9  C   LIG    1       61.214  50.399  45.643  0.00  0.00    +0.016 A 
HETATM   10  C   LIG    1       59.887  50.043  45.798  0.00  0.00    +0.013 A 
HETATM   11  I   LIG    1       58.460  50.703  44.412  0.00  0.00    -0.044 I 
HETATM   12  C   LIG    1       59.499  49.253  46.865  0.00  0.00    +0.016 A 
HETATM   13  C   LIG    1       60.438  48.813  47.777  0.00  0.00    +0.024 A 
ENDBRANCH   6   7
BRANCH   1  14
HETATM   14  S   LIG    1       63.547  46.585  47.079  0.00  0.00    -0.137 S 
HETATM   15  H   LIG    1       64.086  46.678  46.302  0.00  0.00    +0.105 HD
ENDBRANCH   1  14
TORSDOF 2

ENDMDL
MODEL 7
REMARK VINA RESULT:      -4.2      4.222      5.384



ROOT
HETATM    1  C   LIG    1       63.101  48.116  49.303  0.00  0.00    +0.220 C 
HETATM    2  N   LIG    1       63.921  47.119  49.687  0.00  0.00    -0.322 N 
HETATM    3  H   LIG    1       64.322  47.016  50.565  0.00  0.00    +0.148 HD
HETATM    4  C   LIG    1       64.093  46.265  48.609  0.00  0.00    +0.085 C 
HETATM    5  C   LIG    1       63.385  46.743  47.591  0.00  0.00    +0.093 C 
HETATM    6  N   LIG    1       62.754  47.903  48.018  0.00  0.00    -0.278 N 
ENDROOT
BRANCH   6   7
HETATM    7  C   LIG    1       61.913  48.714  47.247  0.00  0.00    +0.036 A 
HETATM    8  C   LIG    1       60.535  48.649  47.418  0.00  0.00    +0.024 A 
HETATM    9  C   LIG    1       59.707  49.450  46.656  0.00  0.00    +0.016 A 
HETATM   10  C   LIG    1       60.249  50.316  45.724  0.00  0.00    +0.013 A 
HETATM   11  I   LIG    1       58.989  51.530  44.570  0.00  0.00    -0.044 I 
HETATM   12  C   LIG    1       61.620  50.384  45.551  0.00  0.00    +0.016 A 
HETATM   13  C   LIG    1       62.453  49.589  46.314  0.00  0.00    +0.024 A 
ENDBRANCH   6   7
BRANCH   1  14
HETATM   14  S   LIG    1       62.584  49.424  50.279  0.00  0.00    -0.137 S 
HETATM   15  H   LIG    1       62.533  49.425  51.228  0.00  0.00    +0.105 HD
ENDBRANCH   1  14
TORSDOF 2

ENDMDL
MODEL 8
REMARK VINA RESULT:      -4.2     34.131     35.518



ROOT
HETATM    1  C   LIG    1       34.426  53.096  68.259  0.00  0.00    +0.220 C 
HETATM    2  N   LIG    1       34.855  52.007  67.593  0.00  0.00    -0.322 N 
HETATM    3  H   LIG    1       34.335  51.208  67.411  0.00  0.00    +0.148 HD
HETATM    4  C   LIG    1       36.170  52.225  67.213  0.00  0.00    +0.085 C 
HETATM    5  C   LIG    1       36.526  53.430  67.645  0.00  0.00    +0.093 C 
HETATM    6  N   LIG    1       35.436  53.988  68.299  0.00  0.00    -0.278 N 
ENDROOT
BRANCH   6   7
HETATM    7  C   LIG    1       35.396  55.251  68.902  0.00  0.00    +0.036 A 
HETATM    8  C   LIG    1       34.934  56.349  68.187  0.00  0.00    +0.024 A 
HETATM    9  C   LIG    1       34.895  57.594  68.784  0.00  0.00    +0.016 A 
HETATM   10  C   LIG    1       35.316  57.747  70.092  0.00  0.00    +0.013 A 
HETATM   11  I   LIG    1       35.255  59.638  70.994  0.00  0.00    -0.044 I 
HETATM   12  C   LIG    1       35.777  56.656  70.807  0.00  0.00    +0.016 A 
HETATM   13  C   LIG    1       35.813  55.408  70.217  0.00  0.00    +0.024 A 
ENDBRANCH   6   7
BRANCH   1  14
HETATM   14  S   LIG    1       32.867  53.314  68.932  0.00  0.00    -0.137 S 
HETATM   15  H   LIG    1       32.052  53.360  68.446  0.00  0.00    +0.105 HD
ENDBRANCH   1  14
TORSDOF 2

ENDMDL
MODEL 9
REMARK VINA RESULT:      -4.2     33.576     34.676



ROOT
HETATM    1  C   LIG    1       36.579  56.441  68.602  0.00  0.00    +0.220 C 
HETATM    2  N   LIG    1       37.566  57.347  68.470  0.00  0.00    -0.322 N 
HETATM    3  H   LIG    1       37.454  58.309  68.411  0.00  0.00    +0.148 HD
HETATM    4  C   LIG    1       38.773  56.664  68.434  0.00  0.00    +0.085 C 
HETATM    5  C   LIG    1       38.512  55.366  68.543  0.00  0.00    +0.093 C 
HETATM    6  N   LIG    1       37.137  55.215  68.654  0.00  0.00    -0.278 N 
ENDROOT
BRANCH   6   7
HETATM    7  C   LIG    1       36.450  54.002  68.788  0.00  0.00    +0.036 A 
HETATM    8  C   LIG    1       36.231  53.462  70.049  0.00  0.00    +0.024 A 
HETATM    9  C   LIG    1       35.553  52.266  70.178  0.00  0.00    +0.016 A 
HETATM   10  C   LIG    1       35.093  51.606  69.053  0.00  0.00    +0.013 A 
HETATM   11  I   LIG    1       34.065  49.791  69.254  0.00  0.00    -0.044 I 
HETATM   12  C   LIG    1       35.310  52.140  67.796  0.00  0.00    +0.016 A 
HETATM   13  C   LIG    1       35.982  53.339  67.661  0.00  0.00    +0.024 A 
ENDBRANCH   6   7
BRANCH   1  14
HETATM   14  S   LIG    1       34.904  56.787  68.695  0.00  0.00    -0.137 S 
HETATM   15  H   LIG    1       34.210  56.294  68.274  0.00  0.00    +0.105 HD
ENDBRANCH   1  14
TORSDOF 2

ENDMDL
