MODEL 1
REMARK VINA RESULT:      -6.1      0.000      0.000



ROOT
HETATM    1  C   LIG    1       44.946  29.880  53.160  0.00  0.00    +0.055 A 
HETATM    2  C   LIG    1       44.295  28.674  52.936  0.00  0.00    +0.037 A 
HETATM    3  C   LIG    1       44.205  28.167  51.654  0.00  0.00    +0.057 A 
HETATM    4  C   LIG    1       44.761  28.860  50.594  0.00  0.00    +0.014 A 
HETATM    5  C   LIG    1       45.410  30.060  50.813  0.00  0.00    +0.022 A 
HETATM    6  C   LIG    1       45.500  30.576  52.093  0.00  0.00    +0.062 A 
HETATM    7 CL   LIG    1       46.315  32.084  52.367  0.00  0.00    -0.082 Cl
ENDROOT
BRANCH   1  13
HETATM    8  C   LIG    1       46.071  30.221  55.308  0.00  0.00    +0.220 C 
HETATM    9  N   LIG    1       45.787  30.870  56.454  0.00  0.00    -0.322 N 
HETATM   10  H   LIG    1       46.355  30.917  57.239  0.00  0.00    +0.148 HD
HETATM   11  C   LIG    1       44.541  31.461  56.315  0.00  0.00    +0.085 C 
HETATM   12  C   LIG    1       44.084  31.170  55.101  0.00  0.00    +0.093 C 
HETATM   13  N   LIG    1       45.040  30.397  54.460  0.00  0.00    -0.276 N 
BRANCH   8  14
HETATM   14  S   LIG    1       47.500  29.334  54.984  0.00  0.00    -0.137 S 
HETATM   15  H   LIG    1       48.367  29.534  55.316  0.00  0.00    +0.105 HD
ENDBRANCH   8  14
ENDBRANCH   1  13
BRANCH   3  16
HETATM   16  C   LIG    1       43.498  26.859  51.411  0.00  0.00    +0.417 C 
HETATM   17  F   LIG    1       42.296  26.838  52.125  0.00  0.00    -0.166 F 
HETATM   18  F   LIG    1       43.232  26.720  50.044  0.00  0.00    -0.166 F 
HETATM   19  F   LIG    1       44.312  25.803  51.836  0.00  0.00    -0.166 F 
ENDBRANCH   3  16
TORSDOF 3

ENDMDL
MODEL 2
REMARK VINA RESULT:      -6.0      4.014      5.585



ROOT
HETATM    1  C   LIG    1       45.099  29.203  51.400  0.00  0.00    +0.055 A 
HETATM    2  C   LIG    1       45.350  30.360  52.126  0.00  0.00    +0.037 A 
HETATM    3  C   LIG    1       44.883  30.478  53.421  0.00  0.00    +0.057 A 
HETATM    4  C   LIG    1       44.165  29.444  53.994  0.00  0.00    +0.014 A 
HETATM    5  C   LIG    1       43.913  28.291  53.276  0.00  0.00    +0.022 A 
HETATM    6  C   LIG    1       44.373  28.169  51.977  0.00  0.00    +0.062 A 
HETATM    7 CL   LIG    1       44.057  26.720  51.076  0.00  0.00    -0.082 Cl
ENDROOT
BRANCH   1  13
HETATM    8  C   LIG    1       46.858  28.907  49.722  0.00  0.00    +0.220 C 
HETATM    9  N   LIG    1       46.906  28.835  48.378  0.00  0.00    -0.322 N 
HETATM   10  H   LIG    1       47.705  28.708  47.842  0.00  0.00    +0.148 HD
HETATM   11  C   LIG    1       45.614  28.974  47.894  0.00  0.00    +0.085 C 
HETATM   12  C   LIG    1       44.802  29.127  48.934  0.00  0.00    +0.093 C 
HETATM   13  N   LIG    1       45.572  29.081  50.087  0.00  0.00    -0.276 N 
BRANCH   8  14
HETATM   14  S   LIG    1       48.197  28.789  50.783  0.00  0.00    -0.137 S 
HETATM   15  H   LIG    1       49.112  28.781  50.527  0.00  0.00    +0.105 HD
ENDBRANCH   8  14
ENDBRANCH   1  13
BRANCH   3  16
HETATM   16  C   LIG    1       45.155  31.733  54.207  0.00  0.00    +0.417 C 
HETATM   17  F   LIG    1       45.688  31.396  55.455  0.00  0.00    -0.166 F 
HETATM   18  F   LIG    1       46.069  32.532  53.510  0.00  0.00    -0.166 F 
HETATM   19  F   LIG    1       43.960  32.440  54.386  0.00  0.00    -0.166 F 
ENDBRANCH   3  16
TORSDOF 3

ENDMDL
MODEL 3
REMARK VINA RESULT:      -5.9      2.259      2.750



ROOT
HETATM    1  C   LIG    1       45.610  30.415  53.367  0.00  0.00    +0.055 A 
HETATM    2  C   LIG    1       45.705  29.965  52.057  0.00  0.00    +0.037 A 
HETATM    3  C   LIG    1       44.804  29.031  51.582  0.00  0.00    +0.057 A 
HETATM    4  C   LIG    1       43.809  28.545  52.410  0.00  0.00    +0.014 A 
HETATM    5  C   LIG    1       43.710  28.992  53.715  0.00  0.00    +0.022 A 
HETATM    6  C   LIG    1       44.612  29.922  54.198  0.00  0.00    +0.062 A 
HETATM    7 CL   LIG    1       44.489  30.482  55.836  0.00  0.00    -0.082 Cl
ENDROOT
BRANCH   1  13
HETATM    8  C   LIG    1       47.749  31.099  54.344  0.00  0.00    +0.220 C 
HETATM    9  N   LIG    1       48.315  32.268  54.704  0.00  0.00    -0.322 N 
HETATM   10  H   LIG    1       49.200  32.378  55.086  0.00  0.00    +0.148 HD
HETATM   11  C   LIG    1       47.413  33.284  54.432  0.00  0.00    +0.085 C 
HETATM   12  C   LIG    1       46.320  32.733  53.916  0.00  0.00    +0.093 C 
HETATM   13  N   LIG    1       46.523  31.362  53.851  0.00  0.00    -0.276 N 
BRANCH   8  14
HETATM   14  S   LIG    1       48.467  29.551  54.481  0.00  0.00    -0.137 S 
HETATM   15  H   LIG    1       48.561  28.916  53.781  0.00  0.00    +0.105 HD
ENDBRANCH   8  14
ENDBRANCH   1  13
BRANCH   3  16
HETATM   16  C   LIG    1       44.907  28.542  50.161  0.00  0.00    +0.417 C 
HETATM   17  F   LIG    1       43.927  27.571  49.929  0.00  0.00    -0.166 F 
HETATM   18  F   LIG    1       44.717  29.615  49.283  0.00  0.00    -0.166 F 
HETATM   19  F   LIG    1       46.174  27.985  49.950  0.00  0.00    -0.166 F 
ENDBRANCH   3  16
TORSDOF 3

ENDMDL
MODEL 4
REMARK VINA RESULT:      -5.9     26.795     27.804



ROOT
HETATM    1  C   LIG    1       61.754  49.683  44.876  0.00  0.00    +0.055 A 
HETATM    2  C   LIG    1       60.438  49.970  44.536  0.00  0.00    +0.037 A 
HETATM    3  C   LIG    1       60.054  51.277  44.309  0.00  0.00    +0.057 A 
HETATM    4  C   LIG    1       60.978  52.300  44.419  0.00  0.00    +0.014 A 
HETATM    5  C   LIG    1       62.289  52.019  44.756  0.00  0.00    +0.022 A 
HETATM    6  C   LIG    1       62.679  50.713  44.991  0.00  0.00    +0.062 A 
HETATM    7 CL   LIG    1       64.325  50.360  45.414  0.00  0.00    -0.082 Cl
ENDROOT
BRANCH   1  13
HETATM    8  C   LIG    1       62.158  47.733  46.300  0.00  0.00    +0.220 C 
HETATM    9  N   LIG    1       62.596  46.473  46.110  0.00  0.00    -0.322 N 
HETATM   10  H   LIG    1       62.702  45.796  46.797  0.00  0.00    +0.148 HD
HETATM   11  C   LIG    1       62.870  46.314  44.760  0.00  0.00    +0.085 C 
HETATM   12  C   LIG    1       62.598  47.462  44.149  0.00  0.00    +0.093 C 
HETATM   13  N   LIG    1       62.146  48.358  45.107  0.00  0.00    -0.276 N 
BRANCH   8  14
HETATM   14  S   LIG    1       61.689  48.418  47.798  0.00  0.00    -0.137 S 
HETATM   15  H   LIG    1       62.242  48.512  48.565  0.00  0.00    +0.105 HD
ENDBRANCH   8  14
ENDBRANCH   1  13
BRANCH   3  16
HETATM   16  C   LIG    1       58.626  51.589  43.941  0.00  0.00    +0.417 C 
HETATM   17  F   LIG    1       58.009  52.265  44.998  0.00  0.00    -0.166 F 
HETATM   18  F   LIG    1       58.604  52.393  42.796  0.00  0.00    -0.166 F 
HETATM   19  F   LIG    1       57.940  50.396  43.686  0.00  0.00    -0.166 F 
ENDBRANCH   3  16
TORSDOF 3

ENDMDL
MODEL 5
REMARK VINA RESULT:      -5.9     26.298     27.217



ROOT
HETATM    1  C   LIG    1       61.572  49.819  46.341  0.00  0.00    +0.055 A 
HETATM    2  C   LIG    1       60.236  49.776  45.965  0.00  0.00    +0.037 A 
HETATM    3  C   LIG    1       59.739  50.708  45.075  0.00  0.00    +0.057 A 
HETATM    4  C   LIG    1       60.571  51.685  44.558  0.00  0.00    +0.014 A 
HETATM    5  C   LIG    1       61.902  51.730  44.928  0.00  0.00    +0.022 A 
HETATM    6  C   LIG    1       62.404  50.804  45.822  0.00  0.00    +0.062 A 
HETATM    7 CL   LIG    1       64.076  50.862  46.287  0.00  0.00    -0.082 Cl
ENDROOT
BRANCH   1  13
HETATM    8  C   LIG    1       62.632  47.689  46.920  0.00  0.00    +0.220 C 
HETATM    9  N   LIG    1       62.995  47.072  48.061  0.00  0.00    -0.322 N 
HETATM   10  H   LIG    1       63.422  46.203  48.128  0.00  0.00    +0.148 HD
HETATM   11  C   LIG    1       62.652  47.895  49.123  0.00  0.00    +0.085 C 
HETATM   12  C   LIG    1       62.092  48.992  48.625  0.00  0.00    +0.093 C 
HETATM   13  N   LIG    1       62.079  48.875  47.243  0.00  0.00    -0.276 N 
BRANCH   8  14
HETATM   14  S   LIG    1       62.844  47.077  45.335  0.00  0.00    -0.137 S 
HETATM   15  H   LIG    1       62.152  46.899  44.709  0.00  0.00    +0.105 HD
ENDBRANCH   8  14
ENDBRANCH   1  13
BRANCH   3  16
HETATM   16  C   LIG    1       58.289  50.662  44.669  0.00  0.00    +0.417 C 
HETATM   17  F   LIG    1       57.559  49.949  45.624  0.00  0.00    -0.166 F 
HETATM   18  F   LIG    1       57.788  51.966  44.577  0.00  0.00    -0.166 F 
HETATM   19  F   LIG    1       58.173  50.030  43.425  0.00  0.00    -0.166 F 
ENDBRANCH   3  16
TORSDOF 3

ENDMDL
MODEL 6
REMARK VINA RESULT:      -5.7      2.901      3.451



ROOT
HETATM    1  C   LIG    1       45.809  29.978  52.415  0.00  0.00    +0.055 A 
HETATM    2  C   LIG    1       46.805  29.942  51.448  0.00  0.00    +0.037 A 
HETATM    3  C   LIG    1       46.708  29.059  50.390  0.00  0.00    +0.057 A 
HETATM    4  C   LIG    1       45.620  28.212  50.292  0.00  0.00    +0.014 A 
HETATM    5  C   LIG    1       44.625  28.245  51.251  0.00  0.00    +0.022 A 
HETATM    6  C   LIG    1       44.719  29.122  52.316  0.00  0.00    +0.062 A 
HETATM    7 CL   LIG    1       43.469  29.164  53.520  0.00  0.00    -0.082 Cl
ENDROOT
BRANCH   1  13
HETATM    8  C   LIG    1       46.582  30.663  54.635  0.00  0.00    +0.220 C 
HETATM    9  N   LIG    1       46.434  31.752  55.414  0.00  0.00    -0.322 N 
HETATM   10  H   LIG    1       46.819  31.878  56.296  0.00  0.00    +0.148 HD
HETATM   11  C   LIG    1       45.638  32.661  54.735  0.00  0.00    +0.085 C 
HETATM   12  C   LIG    1       45.313  32.124  53.564  0.00  0.00    +0.093 C 
HETATM   13  N   LIG    1       45.905  30.872  53.489  0.00  0.00    -0.276 N 
BRANCH   8  14
HETATM   14  S   LIG    1       47.482  29.260  55.028  0.00  0.00    -0.137 S 
HETATM   15  H   LIG    1       47.817  29.036  55.889  0.00  0.00    +0.105 HD
ENDBRANCH   8  14
ENDBRANCH   1  13
BRANCH   3  16
HETATM   16  C   LIG    1       47.790  29.019  49.342  0.00  0.00    +0.417 C 
HETATM   17  F   LIG    1       47.208  28.983  48.071  0.00  0.00    -0.166 F 
HETATM   18  F   LIG    1       48.592  30.160  49.456  0.00  0.00    -0.166 F 
HETATM   19  F   LIG    1       48.577  27.876  49.528  0.00  0.00    -0.166 F 
ENDBRANCH   3  16
TORSDOF 3

ENDMDL
MODEL 7
REMARK VINA RESULT:      -5.6     33.229     34.314



ROOT
HETATM    1  C   LIG    1       57.135  57.325  36.710  0.00  0.00    +0.055 A 
HETATM    2  C   LIG    1       56.470  56.677  37.743  0.00  0.00    +0.037 A 
HETATM    3  C   LIG    1       56.866  55.412  38.132  0.00  0.00    +0.057 A 
HETATM    4  C   LIG    1       57.923  54.790  37.493  0.00  0.00    +0.014 A 
HETATM    5  C   LIG    1       58.588  55.431  36.465  0.00  0.00    +0.022 A 
HETATM    6  C   LIG    1       58.193  56.696  36.067  0.00  0.00    +0.062 A 
HETATM    7 CL   LIG    1       59.028  57.501  34.776  0.00  0.00    -0.082 Cl
ENDROOT
BRANCH   1  13
HETATM    8  C   LIG    1       55.765  58.896  35.424  0.00  0.00    +0.220 C 
HETATM    9  N   LIG    1       55.681  60.236  35.314  0.00  0.00    -0.322 N 
HETATM   10  H   LIG    1       55.064  60.724  34.745  0.00  0.00    +0.148 HD
HETATM   11  C   LIG    1       56.630  60.796  36.155  0.00  0.00    +0.085 C 
HETATM   12  C   LIG    1       57.274  59.805  36.762  0.00  0.00    +0.093 C 
HETATM   13  N   LIG    1       56.735  58.608  36.314  0.00  0.00    -0.276 N 
BRANCH   8  14
HETATM   14  S   LIG    1       54.801  57.757  34.585  0.00  0.00    -0.137 S 
HETATM   15  H   LIG    1       54.004  57.354  34.910  0.00  0.00    +0.105 HD
ENDBRANCH   8  14
ENDBRANCH   1  13
BRANCH   3  16
HETATM   16  C   LIG    1       56.144  54.709  39.252  0.00  0.00    +0.417 C 
HETATM   17  F   LIG    1       55.699  55.651  40.184  0.00  0.00    -0.166 F 
HETATM   18  F   LIG    1       55.047  54.011  38.734  0.00  0.00    -0.166 F 
HETATM   19  F   LIG    1       57.016  53.810  39.876  0.00  0.00    -0.166 F 
ENDBRANCH   3  16
TORSDOF 3

ENDMDL
MODEL 8
REMARK VINA RESULT:      -5.4      2.064      2.760



ROOT
HETATM    1  C   LIG    1       46.478  30.143  54.157  0.00  0.00    +0.055 A 
HETATM    2  C   LIG    1       45.638  29.179  53.615  0.00  0.00    +0.037 A 
HETATM    3  C   LIG    1       44.723  29.530  52.640  0.00  0.00    +0.057 A 
HETATM    4  C   LIG    1       44.643  30.840  52.205  0.00  0.00    +0.014 A 
HETATM    5  C   LIG    1       45.478  31.803  52.741  0.00  0.00    +0.022 A 
HETATM    6  C   LIG    1       46.392  31.459  53.720  0.00  0.00    +0.062 A 
HETATM    7 CL   LIG    1       47.440  32.668  54.393  0.00  0.00    -0.082 Cl
ENDROOT
BRANCH   1  13
HETATM    8  C   LIG    1       48.679  29.403  54.932  0.00  0.00    +0.220 C 
HETATM    9  N   LIG    1       49.246  29.151  56.128  0.00  0.00    -0.322 N 
HETATM   10  H   LIG    1       50.159  28.859  56.276  0.00  0.00    +0.148 HD
HETATM   11  C   LIG    1       48.296  29.382  57.111  0.00  0.00    +0.085 C 
HETATM   12  C   LIG    1       47.174  29.769  56.512  0.00  0.00    +0.093 C 
HETATM   13  N   LIG    1       47.406  29.790  55.145  0.00  0.00    -0.276 N 
BRANCH   8  14
HETATM   14  S   LIG    1       49.447  29.265  53.408  0.00  0.00    -0.137 S 
HETATM   15  H   LIG    1       50.374  29.381  53.238  0.00  0.00    +0.105 HD
ENDBRANCH   8  14
ENDBRANCH   1  13
BRANCH   3  16
HETATM   16  C   LIG    1       43.811  28.484  52.053  0.00  0.00    +0.417 C 
HETATM   17  F   LIG    1       43.773  28.625  50.663  0.00  0.00    -0.166 F 
HETATM   18  F   LIG    1       44.291  27.211  52.380  0.00  0.00    -0.166 F 
HETATM   19  F   LIG    1       42.522  28.644  52.574  0.00  0.00    -0.166 F 
ENDBRANCH   3  16
TORSDOF 3

ENDMDL
MODEL 9
REMARK VINA RESULT:      -5.3     29.403     30.939



ROOT
HETATM    1  C   LIG    1       38.150  55.859  68.240  0.00  0.00    +0.055 A 
HETATM    2  C   LIG    1       37.969  54.536  67.859  0.00  0.00    +0.037 A 
HETATM    3  C   LIG    1       36.724  53.949  67.976  0.00  0.00    +0.057 A 
HETATM    4  C   LIG    1       35.658  54.677  68.472  0.00  0.00    +0.014 A 
HETATM    5  C   LIG    1       35.833  55.995  68.851  0.00  0.00    +0.022 A 
HETATM    6  C   LIG    1       37.078  56.587  68.742  0.00  0.00    +0.062 A 
HETATM    7 CL   LIG    1       37.298  58.242  69.218  0.00  0.00    -0.082 Cl
ENDROOT
BRANCH   1  13
HETATM    8  C   LIG    1       40.352  56.516  69.085  0.00  0.00    +0.220 C 
HETATM    9  N   LIG    1       41.421  57.169  68.588  0.00  0.00    -0.322 N 
HETATM   10  H   LIG    1       42.247  57.353  69.061  0.00  0.00    +0.148 HD
HETATM   11  C   LIG    1       41.133  57.531  67.281  0.00  0.00    +0.085 C 
HETATM   12  C   LIG    1       39.908  57.100  66.998  0.00  0.00    +0.093 C 
HETATM   13  N   LIG    1       39.411  56.457  68.122  0.00  0.00    -0.276 N 
BRANCH   8  14
HETATM   14  S   LIG    1       40.217  55.865  70.663  0.00  0.00    -0.137 S 
HETATM   15  H   LIG    1       40.939  55.605  71.222  0.00  0.00    +0.105 HD
ENDBRANCH   8  14
ENDBRANCH   1  13
BRANCH   3  16
HETATM   16  C   LIG    1       36.528  52.513  67.564  0.00  0.00    +0.417 C 
HETATM   17  F   LIG    1       35.330  52.391  66.852  0.00  0.00    -0.166 F 
HETATM   18  F   LIG    1       37.595  52.111  66.753  0.00  0.00    -0.166 F 
HETATM   19  F   LIG    1       36.478  51.703  68.704  0.00  0.00    -0.166 F 
ENDBRANCH   3  16
TORSDOF 3

ENDMDL
