MODEL 1
REMARK VINA RESULT:      -5.3      0.000      0.000



ROOT
HETATM    1  C   LIG    1       61.026  48.565  46.322  0.00  0.00    +0.220 C 
HETATM    2  N   LIG    1       61.839  47.490  46.368  0.00  0.00    -0.322 N 
HETATM    3  H   LIG    1       61.935  46.880  47.116  0.00  0.00    +0.148 HD
HETATM    4  C   LIG    1       62.511  47.409  45.159  0.00  0.00    +0.085 C 
HETATM    5  C   LIG    1       62.110  48.421  44.397  0.00  0.00    +0.093 C 
HETATM    6  N   LIG    1       61.173  49.149  45.116  0.00  0.00    -0.275 N 
ENDROOT
BRANCH   6   7
HETATM    7  C   LIG    1       60.503  50.296  44.670  0.00  0.00    +0.073 A 
HETATM    8  C   LIG    1       61.107  51.542  44.778  0.00  0.00    +0.064 A 
HETATM    9 CL   LIG    1       62.695  51.680  45.466  0.00  0.00    -0.082 Cl
HETATM   10  C   LIG    1       60.444  52.672  44.337  0.00  0.00    +0.022 A 
HETATM   11  C   LIG    1       59.179  52.562  43.788  0.00  0.00    +0.003 A 
HETATM   12  C   LIG    1       58.574  51.324  43.680  0.00  0.00    +0.022 A 
HETATM   13  C   LIG    1       59.234  50.190  44.114  0.00  0.00    +0.064 A 
HETATM   14 CL   LIG    1       58.473  48.635  43.976  0.00  0.00    -0.082 Cl
ENDBRANCH   6   7
BRANCH   1  15
HETATM   15  S   LIG    1       59.985  49.091  47.574  0.00  0.00    -0.137 S 
HETATM   16  H   LIG    1       59.885  48.682  48.425  0.00  0.00    +0.105 HD
ENDBRANCH   1  15
TORSDOF 2

ENDMDL
MODEL 2
REMARK VINA RESULT:      -5.3      0.056      2.416



ROOT
HETATM    1  C   LIG    1       60.980  48.608  46.331  0.00  0.00    +0.220 C 
HETATM    2  N   LIG    1       61.799  47.540  46.400  0.00  0.00    -0.322 N 
HETATM    3  H   LIG    1       61.883  46.934  47.153  0.00  0.00    +0.148 HD
HETATM    4  C   LIG    1       62.500  47.458  45.208  0.00  0.00    +0.085 C 
HETATM    5  C   LIG    1       62.109  48.465  44.432  0.00  0.00    +0.093 C 
HETATM    6  N   LIG    1       61.150  49.188  45.127  0.00  0.00    -0.275 N 
ENDROOT
BRANCH   6   7
HETATM    7  C   LIG    1       60.482  50.329  44.660  0.00  0.00    +0.073 A 
HETATM    8  C   LIG    1       59.217  50.213  44.098  0.00  0.00    +0.064 A 
HETATM    9 CL   LIG    1       58.461  48.656  43.973  0.00  0.00    -0.082 Cl
HETATM   10  C   LIG    1       58.560  51.340  43.640  0.00  0.00    +0.022 A 
HETATM   11  C   LIG    1       59.161  52.582  43.741  0.00  0.00    +0.003 A 
HETATM   12  C   LIG    1       60.421  52.700  44.299  0.00  0.00    +0.022 A 
HETATM   13  C   LIG    1       61.080  51.578  44.765  0.00  0.00    +0.064 A 
HETATM   14 CL   LIG    1       62.661  51.728  45.467  0.00  0.00    -0.082 Cl
ENDBRANCH   6   7
BRANCH   1  15
HETATM   15  S   LIG    1       59.906  49.132  47.557  0.00  0.00    -0.137 S 
HETATM   16  H   LIG    1       58.960  49.162  47.493  0.00  0.00    +0.105 HD
ENDBRANCH   1  15
TORSDOF 2

ENDMDL
MODEL 3
REMARK VINA RESULT:      -5.0     24.745     26.241



ROOT
HETATM    1  C   LIG    1       47.353  30.755  54.604  0.00  0.00    +0.220 C 
HETATM    2  N   LIG    1       47.885  31.928  55.004  0.00  0.00    -0.322 N 
HETATM    3  H   LIG    1       48.628  32.036  55.618  0.00  0.00    +0.148 HD
HETATM    4  C   LIG    1       47.184  32.950  54.384  0.00  0.00    +0.085 C 
HETATM    5  C   LIG    1       46.243  32.400  53.623  0.00  0.00    +0.093 C 
HETATM    6  N   LIG    1       46.345  31.023  53.750  0.00  0.00    -0.275 N 
ENDROOT
BRANCH   6   7
HETATM    7  C   LIG    1       45.536  30.074  53.109  0.00  0.00    +0.073 A 
HETATM    8  C   LIG    1       44.365  29.635  53.714  0.00  0.00    +0.064 A 
HETATM    9 CL   LIG    1       43.902  30.261  55.266  0.00  0.00    -0.082 Cl
HETATM   10  C   LIG    1       43.569  28.700  53.079  0.00  0.00    +0.022 A 
HETATM   11  C   LIG    1       43.938  28.203  51.842  0.00  0.00    +0.003 A 
HETATM   12  C   LIG    1       45.102  28.636  51.238  0.00  0.00    +0.022 A 
HETATM   13  C   LIG    1       45.900  29.575  51.865  0.00  0.00    +0.064 A 
HETATM   14 CL   LIG    1       47.362  30.121  51.104  0.00  0.00    -0.082 Cl
ENDBRANCH   6   7
BRANCH   1  15
HETATM   15  S   LIG    1       47.872  29.199  55.092  0.00  0.00    -0.137 S 
HETATM   16  H   LIG    1       47.934  28.887  55.986  0.00  0.00    +0.105 HD
ENDBRANCH   1  15
TORSDOF 2

ENDMDL
MODEL 4
REMARK VINA RESULT:      -5.0     24.724     26.190



ROOT
HETATM    1  C   LIG    1       47.405  30.743  54.627  0.00  0.00    +0.220 C 
HETATM    2  N   LIG    1       47.959  31.905  55.026  0.00  0.00    -0.322 N 
HETATM    3  H   LIG    1       48.709  32.000  55.634  0.00  0.00    +0.148 HD
HETATM    4  C   LIG    1       47.271  32.941  54.415  0.00  0.00    +0.085 C 
HETATM    5  C   LIG    1       46.315  32.409  53.659  0.00  0.00    +0.093 C 
HETATM    6  N   LIG    1       46.396  31.029  53.782  0.00  0.00    -0.275 N 
ENDROOT
BRANCH   6   7
HETATM    7  C   LIG    1       45.566  30.096  53.145  0.00  0.00    +0.073 A 
HETATM    8  C   LIG    1       45.913  29.595  51.896  0.00  0.00    +0.064 A 
HETATM    9 CL   LIG    1       47.374  30.123  51.124  0.00  0.00    -0.082 Cl
HETATM   10  C   LIG    1       45.093  28.674  51.271  0.00  0.00    +0.022 A 
HETATM   11  C   LIG    1       43.928  28.252  51.887  0.00  0.00    +0.003 A 
HETATM   12  C   LIG    1       43.580  28.750  53.128  0.00  0.00    +0.022 A 
HETATM   13  C   LIG    1       44.398  29.666  53.762  0.00  0.00    +0.064 A 
HETATM   14 CL   LIG    1       43.961  30.289  55.323  0.00  0.00    -0.082 Cl
ENDBRANCH   6   7
BRANCH   1  15
HETATM   15  S   LIG    1       47.902  29.177  55.107  0.00  0.00    -0.137 S 
HETATM   16  H   LIG    1       47.966  28.861  56.000  0.00  0.00    +0.105 HD
ENDBRANCH   1  15
TORSDOF 2

ENDMDL
MODEL 5
REMARK VINA RESULT:      -4.6     34.446     35.162



ROOT
HETATM    1  C   LIG    1       34.833  55.745  70.293  0.00  0.00    +0.220 C 
HETATM    2  N   LIG    1       34.176  56.906  70.481  0.00  0.00    -0.322 N 
HETATM    3  H   LIG    1       33.957  57.305  71.338  0.00  0.00    +0.148 HD
HETATM    4  C   LIG    1       33.870  57.433  69.236  0.00  0.00    +0.085 C 
HETATM    5  C   LIG    1       34.335  56.598  68.312  0.00  0.00    +0.093 C 
HETATM    6  N   LIG    1       34.947  55.538  68.967  0.00  0.00    -0.275 N 
ENDROOT
BRANCH   6   7
HETATM    7  C   LIG    1       35.567  54.440  68.354  0.00  0.00    +0.073 A 
HETATM    8  C   LIG    1       36.909  54.505  68.004  0.00  0.00    +0.064 A 
HETATM    9 CL   LIG    1       37.822  55.946  68.324  0.00  0.00    -0.082 Cl
HETATM   10  C   LIG    1       37.518  53.420  67.401  0.00  0.00    +0.022 A 
HETATM   11  C   LIG    1       36.792  52.271  67.147  0.00  0.00    +0.003 A 
HETATM   12  C   LIG    1       35.455  52.203  67.493  0.00  0.00    +0.022 A 
HETATM   13  C   LIG    1       34.842  53.282  68.102  0.00  0.00    +0.064 A 
HETATM   14 CL   LIG    1       33.164  53.195  68.538  0.00  0.00    -0.082 Cl
ENDBRANCH   6   7
BRANCH   1  15
HETATM   15  S   LIG    1       35.425  54.715  71.526  0.00  0.00    -0.137 S 
HETATM   16  H   LIG    1       35.952  53.936  71.396  0.00  0.00    +0.105 HD
ENDBRANCH   1  15
TORSDOF 2

ENDMDL
MODEL 6
REMARK VINA RESULT:      -4.6     34.459     35.254



ROOT
HETATM    1  C   LIG    1       34.835  55.764  70.301  0.00  0.00    +0.220 C 
HETATM    2  N   LIG    1       34.177  56.926  70.484  0.00  0.00    -0.322 N 
HETATM    3  H   LIG    1       33.962  57.331  71.339  0.00  0.00    +0.148 HD
HETATM    4  C   LIG    1       33.861  57.442  69.237  0.00  0.00    +0.085 C 
HETATM    5  C   LIG    1       34.322  56.600  68.317  0.00  0.00    +0.093 C 
HETATM    6  N   LIG    1       34.941  55.548  68.975  0.00  0.00    -0.275 N 
ENDROOT
BRANCH   6   7
HETATM    7  C   LIG    1       35.560  54.446  68.368  0.00  0.00    +0.073 A 
HETATM    8  C   LIG    1       34.831  53.291  68.114  0.00  0.00    +0.064 A 
HETATM    9 CL   LIG    1       33.153  53.210  68.548  0.00  0.00    -0.082 Cl
HETATM   10  C   LIG    1       35.444  52.207  67.514  0.00  0.00    +0.022 A 
HETATM   11  C   LIG    1       36.782  52.272  67.167  0.00  0.00    +0.003 A 
HETATM   12  C   LIG    1       37.510  53.419  67.419  0.00  0.00    +0.022 A 
HETATM   13  C   LIG    1       36.901  54.510  68.013  0.00  0.00    +0.064 A 
HETATM   14 CL   LIG    1       37.816  55.951  68.328  0.00  0.00    -0.082 Cl
ENDBRANCH   6   7
BRANCH   1  15
HETATM   15  S   LIG    1       35.438  54.746  71.538  0.00  0.00    -0.137 S 
HETATM   16  H   LIG    1       36.139  54.113  71.446  0.00  0.00    +0.105 HD
ENDBRANCH   1  15
TORSDOF 2

ENDMDL
MODEL 7
REMARK VINA RESULT:      -4.3     32.829     33.652



ROOT
HETATM    1  C   LIG    1       49.135  17.650  42.424  0.00  0.00    +0.220 C 
HETATM    2  N   LIG    1       50.434  17.618  42.780  0.00  0.00    -0.322 N 
HETATM    3  H   LIG    1       50.905  16.854  43.147  0.00  0.00    +0.148 HD
HETATM    4  C   LIG    1       50.980  18.867  42.528  0.00  0.00    +0.085 C 
HETATM    5  C   LIG    1       50.020  19.640  42.029  0.00  0.00    +0.093 C 
HETATM    6  N   LIG    1       48.860  18.883  41.954  0.00  0.00    -0.275 N 
ENDROOT
BRANCH   6   7
HETATM    7  C   LIG    1       47.617  19.326  41.481  0.00  0.00    +0.073 A 
HETATM    8  C   LIG    1       46.706  19.906  42.355  0.00  0.00    +0.064 A 
HETATM    9 CL   LIG    1       47.106  20.084  44.035  0.00  0.00    -0.082 Cl
HETATM   10  C   LIG    1       45.481  20.342  41.885  0.00  0.00    +0.022 A 
HETATM   11  C   LIG    1       45.163  20.202  40.546  0.00  0.00    +0.003 A 
HETATM   12  C   LIG    1       46.067  19.625  39.674  0.00  0.00    +0.022 A 
HETATM   13  C   LIG    1       47.296  19.192  40.136  0.00  0.00    +0.064 A 
HETATM   14 CL   LIG    1       48.431  18.468  39.040  0.00  0.00    -0.082 Cl
ENDBRANCH   6   7
BRANCH   1  15
HETATM   15  S   LIG    1       48.028  16.350  42.542  0.00  0.00    -0.137 S 
HETATM   16  H   LIG    1       47.508  16.127  43.305  0.00  0.00    +0.105 HD
ENDBRANCH   1  15
TORSDOF 2

ENDMDL
MODEL 8
REMARK VINA RESULT:      -4.3     31.587     33.014



ROOT
HETATM    1  C   LIG    1       28.579  42.671  47.402  0.00  0.00    +0.220 C 
HETATM    2  N   LIG    1       28.159  43.272  48.532  0.00  0.00    -0.322 N 
HETATM    3  H   LIG    1       27.840  44.185  48.607  0.00  0.00    +0.148 HD
HETATM    4  C   LIG    1       28.261  42.358  49.569  0.00  0.00    +0.085 C 
HETATM    5  C   LIG    1       28.738  41.222  49.068  0.00  0.00    +0.093 C 
HETATM    6  N   LIG    1       28.935  41.407  47.707  0.00  0.00    -0.275 N 
ENDROOT
BRANCH   6   7
HETATM    7  C   LIG    1       29.426  40.450  46.809  0.00  0.00    +0.073 A 
HETATM    8  C   LIG    1       28.546  39.628  46.117  0.00  0.00    +0.064 A 
HETATM    9 CL   LIG    1       26.835  39.786  46.362  0.00  0.00    -0.082 Cl
HETATM   10  C   LIG    1       29.034  38.685  45.231  0.00  0.00    +0.022 A 
HETATM   11  C   LIG    1       30.397  38.561  45.034  0.00  0.00    +0.003 A 
HETATM   12  C   LIG    1       31.276  39.375  45.722  0.00  0.00    +0.022 A 
HETATM   13  C   LIG    1       30.795  40.324  46.604  0.00  0.00    +0.064 A 
HETATM   14 CL   LIG    1       31.900  41.349  47.467  0.00  0.00    -0.082 Cl
ENDBRANCH   6   7
BRANCH   1  15
HETATM   15  S   LIG    1       28.644  43.385  45.848  0.00  0.00    -0.137 S 
HETATM   16  H   LIG    1       27.991  43.963  45.472  0.00  0.00    +0.105 HD
ENDBRANCH   1  15
TORSDOF 2

ENDMDL
MODEL 9
REMARK VINA RESULT:      -4.2      2.736      3.016



ROOT
HETATM    1  C   LIG    1       64.660  49.235  46.365  0.00  0.00    +0.220 C 
HETATM    2  N   LIG    1       65.902  48.751  46.167  0.00  0.00    -0.322 N 
HETATM    3  H   LIG    1       66.477  48.363  46.845  0.00  0.00    +0.148 HD
HETATM    4  C   LIG    1       66.214  48.903  44.825  0.00  0.00    +0.085 C 
HETATM    5  C   LIG    1       65.173  49.473  44.225  0.00  0.00    +0.093 C 
HETATM    6  N   LIG    1       64.191  49.679  45.182  0.00  0.00    -0.275 N 
ENDROOT
BRANCH   6   7
HETATM    7  C   LIG    1       62.933  50.257  44.960  0.00  0.00    +0.073 A 
HETATM    8  C   LIG    1       62.757  51.625  45.121  0.00  0.00    +0.064 A 
HETATM    9 CL   LIG    1       64.096  52.623  45.598  0.00  0.00    -0.082 Cl
HETATM   10  C   LIG    1       61.516  52.192  44.901  0.00  0.00    +0.022 A 
HETATM   11  C   LIG    1       60.450  51.398  44.519  0.00  0.00    +0.003 A 
HETATM   12  C   LIG    1       60.621  50.036  44.358  0.00  0.00    +0.022 A 
HETATM   13  C   LIG    1       61.861  49.463  44.572  0.00  0.00    +0.064 A 
HETATM   14 CL   LIG    1       62.075  47.753  44.368  0.00  0.00    -0.082 Cl
ENDBRANCH   6   7
BRANCH   1  15
HETATM   15  S   LIG    1       63.823  49.274  47.857  0.00  0.00    -0.137 S 
HETATM   16  H   LIG    1       62.960  48.913  48.022  0.00  0.00    +0.105 HD
ENDBRANCH   1  15
TORSDOF 2

ENDMDL
