MODEL 1
REMARK VINA RESULT:      -5.5      0.000      0.000



ROOT
HETATM    1  C   LIG    1       46.985  31.100  53.721  0.00  0.00    +0.220 C 
HETATM    2  N   LIG    1       47.133  32.185  54.506  0.00  0.00    -0.322 N 
HETATM    3  H   LIG    1       47.954  32.469  54.939  0.00  0.00    +0.148 HD
HETATM    4  C   LIG    1       45.905  32.824  54.592  0.00  0.00    +0.085 C 
HETATM    5  C   LIG    1       45.033  32.132  53.866  0.00  0.00    +0.093 C 
HETATM    6  N   LIG    1       45.703  31.051  53.311  0.00  0.00    -0.278 N 
ENDROOT
BRANCH   6   7
HETATM    7  C   LIG    1       45.141  30.075  52.478  0.00  0.00    +0.037 A 
HETATM    8  C   LIG    1       45.517  30.001  51.143  0.00  0.00    +0.023 A 
HETATM    9  C   LIG    1       44.963  29.038  50.323  0.00  0.00    +0.003 A 
HETATM   10  C   LIG    1       44.034  28.147  50.830  0.00  0.00    +0.020 A 
HETATM   11  C   LIG    1       43.658  28.218  52.160  0.00  0.00    +0.043 A 
HETATM   12 CL   LIG    1       42.491  27.098  52.792  0.00  0.00    -0.083 Cl
HETATM   13  C   LIG    1       44.214  29.176  52.986  0.00  0.00    +0.043 A 
ENDBRANCH   6   7
BRANCH   1  14
HETATM   14  S   LIG    1       48.216  29.983  53.310  0.00  0.00    -0.137 S 
HETATM   15  H   LIG    1       48.698  29.960  52.492  0.00  0.00    +0.105 HD
ENDBRANCH   1  14
TORSDOF 2

ENDMDL
MODEL 2
REMARK VINA RESULT:      -5.2      9.739     10.456



ROOT
HETATM    1  C   LIG    1       41.965  21.463  58.654  0.00  0.00    +0.220 C 
HETATM    2  N   LIG    1       42.400  22.421  59.496  0.00  0.00    -0.322 N 
HETATM    3  H   LIG    1       42.389  22.377  60.466  0.00  0.00    +0.148 HD
HETATM    4  C   LIG    1       42.864  23.484  58.736  0.00  0.00    +0.085 C 
HETATM    5  C   LIG    1       42.711  23.167  57.454  0.00  0.00    +0.093 C 
HETATM    6  N   LIG    1       42.152  21.898  57.393  0.00  0.00    -0.278 N 
ENDROOT
BRANCH   6   7
HETATM    7  C   LIG    1       41.831  21.196  56.224  0.00  0.00    +0.037 A 
HETATM    8  C   LIG    1       42.649  20.162  55.787  0.00  0.00    +0.023 A 
HETATM    9  C   LIG    1       42.331  19.471  54.634  0.00  0.00    +0.003 A 
HETATM   10  C   LIG    1       41.198  19.808  53.915  0.00  0.00    +0.020 A 
HETATM   11  C   LIG    1       40.381  20.837  54.348  0.00  0.00    +0.043 A 
HETATM   12 CL   LIG    1       38.960  21.256  53.442  0.00  0.00    -0.083 Cl
HETATM   13  C   LIG    1       40.691  21.528  55.504  0.00  0.00    +0.043 A 
ENDBRANCH   6   7
BRANCH   1  14
HETATM   14  S   LIG    1       41.298  19.954  59.109  0.00  0.00    -0.137 S 
HETATM   15  H   LIG    1       41.469  19.119  58.688  0.00  0.00    +0.105 HD
ENDBRANCH   1  14
TORSDOF 2

ENDMDL
MODEL 3
REMARK VINA RESULT:      -5.1      2.559      4.505



ROOT
HETATM    1  C   LIG    1       45.888  29.084  51.021  0.00  0.00    +0.220 C 
HETATM    2  N   LIG    1       45.237  28.255  50.181  0.00  0.00    -0.322 N 
HETATM    3  H   LIG    1       45.598  27.871  49.366  0.00  0.00    +0.148 HD
HETATM    4  C   LIG    1       43.961  28.049  50.682  0.00  0.00    +0.085 C 
HETATM    5  C   LIG    1       43.848  28.744  51.809  0.00  0.00    +0.093 C 
HETATM    6  N   LIG    1       45.054  29.393  52.033  0.00  0.00    -0.278 N 
ENDROOT
BRANCH   6   7
HETATM    7  C   LIG    1       45.350  30.230  53.117  0.00  0.00    +0.037 A 
HETATM    8  C   LIG    1       44.945  31.558  53.101  0.00  0.00    +0.023 A 
HETATM    9  C   LIG    1       45.236  32.381  54.170  0.00  0.00    +0.003 A 
HETATM   10  C   LIG    1       45.931  31.884  55.258  0.00  0.00    +0.020 A 
HETATM   11  C   LIG    1       46.336  30.561  55.278  0.00  0.00    +0.043 A 
HETATM   12 CL   LIG    1       47.208  29.941  56.645  0.00  0.00    -0.083 Cl
HETATM   13  C   LIG    1       46.041  29.731  54.212  0.00  0.00    +0.043 A 
ENDBRANCH   6   7
BRANCH   1  14
HETATM   14  S   LIG    1       47.496  29.640  50.837  0.00  0.00    -0.137 S 
HETATM   15  H   LIG    1       48.283  29.155  51.057  0.00  0.00    +0.105 HD
ENDBRANCH   1  14
TORSDOF 2

ENDMDL
MODEL 4
REMARK VINA RESULT:      -5.1     25.649     26.379



ROOT
HETATM    1  C   LIG    1       58.747  51.014  44.582  0.00  0.00    +0.220 C 
HETATM    2  N   LIG    1       58.405  52.246  44.157  0.00  0.00    -0.322 N 
HETATM    3  H   LIG    1       57.513  52.537  43.910  0.00  0.00    +0.148 HD
HETATM    4  C   LIG    1       59.552  53.025  44.130  0.00  0.00    +0.085 C 
HETATM    5  C   LIG    1       60.568  52.271  44.536  0.00  0.00    +0.093 C 
HETATM    6  N   LIG    1       60.072  51.008  44.827  0.00  0.00    -0.278 N 
ENDROOT
BRANCH   6   7
HETATM    7  C   LIG    1       60.820  49.916  45.286  0.00  0.00    +0.037 A 
HETATM    8  C   LIG    1       61.447  49.072  44.378  0.00  0.00    +0.023 A 
HETATM    9  C   LIG    1       62.185  47.997  44.832  0.00  0.00    +0.003 A 
HETATM   10  C   LIG    1       62.300  47.759  46.190  0.00  0.00    +0.020 A 
HETATM   11  C   LIG    1       61.677  48.598  47.097  0.00  0.00    +0.043 A 
HETATM   12 CL   LIG    1       61.823  48.296  48.801  0.00  0.00    -0.083 Cl
HETATM   13  C   LIG    1       60.942  49.680  46.648  0.00  0.00    +0.043 A 
ENDBRANCH   6   7
BRANCH   1  14
HETATM   14  S   LIG    1       57.682  49.689  44.783  0.00  0.00    -0.137 S 
HETATM   15  H   LIG    1       57.936  48.791  44.964  0.00  0.00    +0.105 HD
ENDBRANCH   1  14
TORSDOF 2

ENDMDL
MODEL 5
REMARK VINA RESULT:      -5.0     25.635     26.465



ROOT
HETATM    1  C   LIG    1       58.725  50.989  44.454  0.00  0.00    +0.220 C 
HETATM    2  N   LIG    1       58.399  52.226  44.030  0.00  0.00    -0.322 N 
HETATM    3  H   LIG    1       57.522  52.513  43.730  0.00  0.00    +0.148 HD
HETATM    4  C   LIG    1       59.536  53.016  44.095  0.00  0.00    +0.085 C 
HETATM    5  C   LIG    1       60.532  52.264  44.553  0.00  0.00    +0.093 C 
HETATM    6  N   LIG    1       60.031  50.991  44.786  0.00  0.00    -0.278 N 
ENDROOT
BRANCH   6   7
HETATM    7  C   LIG    1       60.759  49.898  45.273  0.00  0.00    +0.037 A 
HETATM    8  C   LIG    1       60.757  49.611  46.632  0.00  0.00    +0.023 A 
HETATM    9  C   LIG    1       61.475  48.533  47.111  0.00  0.00    +0.003 A 
HETATM   10  C   LIG    1       62.195  47.737  46.237  0.00  0.00    +0.020 A 
HETATM   11  C   LIG    1       62.198  48.019  44.883  0.00  0.00    +0.043 A 
HETATM   12 CL   LIG    1       63.104  47.018  43.791  0.00  0.00    -0.083 Cl
HETATM   13  C   LIG    1       61.476  49.094  44.398  0.00  0.00    +0.043 A 
ENDBRANCH   6   7
BRANCH   1  14
HETATM   14  S   LIG    1       57.663  49.650  44.558  0.00  0.00    -0.137 S 
HETATM   15  H   LIG    1       57.458  49.161  45.346  0.00  0.00    +0.105 HD
ENDBRANCH   1  14
TORSDOF 2

ENDMDL
MODEL 6
REMARK VINA RESULT:      -4.9     25.246     26.006



ROOT
HETATM    1  C   LIG    1       62.587  47.659  46.943  0.00  0.00    +0.220 C 
HETATM    2  N   LIG    1       63.029  47.120  48.096  0.00  0.00    -0.322 N 
HETATM    3  H   LIG    1       63.529  46.293  48.184  0.00  0.00    +0.148 HD
HETATM    4  C   LIG    1       62.641  47.951  49.136  0.00  0.00    +0.085 C 
HETATM    5  C   LIG    1       61.977  48.976  48.613  0.00  0.00    +0.093 C 
HETATM    6  N   LIG    1       61.942  48.805  47.236  0.00  0.00    -0.278 N 
ENDROOT
BRANCH   6   7
HETATM    7  C   LIG    1       61.335  49.668  46.315  0.00  0.00    +0.037 A 
HETATM    8  C   LIG    1       62.072  50.689  45.729  0.00  0.00    +0.023 A 
HETATM    9  C   LIG    1       61.472  51.539  44.821  0.00  0.00    +0.003 A 
HETATM   10  C   LIG    1       60.138  51.373  44.494  0.00  0.00    +0.020 A 
HETATM   11  C   LIG    1       59.401  50.357  45.075  0.00  0.00    +0.043 A 
HETATM   12 CL   LIG    1       57.727  50.153  44.662  0.00  0.00    -0.083 Cl
HETATM   13  C   LIG    1       59.999  49.500  45.981  0.00  0.00    +0.043 A 
ENDBRANCH   6   7
BRANCH   1  14
HETATM   14  S   LIG    1       62.813  47.006  45.377  0.00  0.00    -0.137 S 
HETATM   15  H   LIG    1       63.356  47.376  44.690  0.00  0.00    +0.105 HD
ENDBRANCH   1  14
TORSDOF 2

ENDMDL
MODEL 7
REMARK VINA RESULT:      -4.9     25.643     26.495



ROOT
HETATM    1  C   LIG    1       62.405  48.597  46.502  0.00  0.00    +0.220 C 
HETATM    2  N   LIG    1       63.573  47.926  46.518  0.00  0.00    -0.322 N 
HETATM    3  H   LIG    1       63.934  47.426  47.267  0.00  0.00    +0.148 HD
HETATM    4  C   LIG    1       64.172  48.076  45.276  0.00  0.00    +0.085 C 
HETATM    5  C   LIG    1       63.372  48.825  44.525  0.00  0.00    +0.093 C 
HETATM    6  N   LIG    1       62.258  49.153  45.284  0.00  0.00    -0.278 N 
ENDROOT
BRANCH   6   7
HETATM    7  C   LIG    1       61.174  49.933  44.860  0.00  0.00    +0.037 A 
HETATM    8  C   LIG    1       61.290  51.316  44.812  0.00  0.00    +0.023 A 
HETATM    9  C   LIG    1       60.222  52.084  44.394  0.00  0.00    +0.003 A 
HETATM   10  C   LIG    1       59.035  51.477  44.022  0.00  0.00    +0.020 A 
HETATM   11  C   LIG    1       58.917  50.099  44.069  0.00  0.00    +0.043 A 
HETATM   12 CL   LIG    1       57.426  49.341  43.602  0.00  0.00    -0.083 Cl
HETATM   13  C   LIG    1       59.986  49.326  44.481  0.00  0.00    +0.043 A 
ENDBRANCH   6   7
BRANCH   1  14
HETATM   14  S   LIG    1       61.297  48.715  47.802  0.00  0.00    -0.137 S 
HETATM   15  H   LIG    1       61.494  49.031  48.676  0.00  0.00    +0.105 HD
ENDBRANCH   1  14
TORSDOF 2

ENDMDL
MODEL 8
REMARK VINA RESULT:      -4.8     25.052     26.409



ROOT
HETATM    1  C   LIG    1       62.740  49.886  45.366  0.00  0.00    +0.220 C 
HETATM    2  N   LIG    1       63.876  50.609  45.346  0.00  0.00    -0.322 N 
HETATM    3  H   LIG    1       64.779  50.255  45.381  0.00  0.00    +0.148 HD
HETATM    4  C   LIG    1       63.531  51.950  45.268  0.00  0.00    +0.085 C 
HETATM    5  C   LIG    1       62.205  52.029  45.241  0.00  0.00    +0.093 C 
HETATM    6  N   LIG    1       61.699  50.738  45.297  0.00  0.00    -0.278 N 
ENDROOT
BRANCH   6   7
HETATM    7  C   LIG    1       60.344  50.384  45.291  0.00  0.00    +0.037 A 
HETATM    8  C   LIG    1       59.592  50.531  44.133  0.00  0.00    +0.023 A 
HETATM    9  C   LIG    1       58.256  50.182  44.128  0.00  0.00    +0.003 A 
HETATM   10  C   LIG    1       57.666  49.686  45.277  0.00  0.00    +0.020 A 
HETATM   11  C   LIG    1       58.412  49.538  46.433  0.00  0.00    +0.043 A 
HETATM   12 CL   LIG    1       57.667  48.915  47.872  0.00  0.00    -0.083 Cl
HETATM   13  C   LIG    1       59.752  49.880  46.441  0.00  0.00    +0.043 A 
ENDBRANCH   6   7
BRANCH   1  14
HETATM   14  S   LIG    1       62.638  48.179  45.457  0.00  0.00    -0.137 S 
HETATM   15  H   LIG    1       62.373  47.598  44.754  0.00  0.00    +0.105 HD
ENDBRANCH   1  14
TORSDOF 2

ENDMDL
MODEL 9
REMARK VINA RESULT:      -4.6     24.760     25.566



ROOT
HETATM    1  C   LIG    1       62.961  48.072  48.921  0.00  0.00    +0.220 C 
HETATM    2  N   LIG    1       63.959  47.172  49.026  0.00  0.00    -0.322 N 
HETATM    3  H   LIG    1       64.566  47.079  49.777  0.00  0.00    +0.148 HD
HETATM    4  C   LIG    1       63.968  46.404  47.872  0.00  0.00    +0.085 C 
HETATM    5  C   LIG    1       62.987  46.836  47.085  0.00  0.00    +0.093 C 
HETATM    6  N   LIG    1       62.346  47.880  47.738  0.00  0.00    -0.278 N 
ENDROOT
BRANCH   6   7
HETATM    7  C   LIG    1       61.256  48.610  47.248  0.00  0.00    +0.037 A 
HETATM    8  C   LIG    1       59.993  48.427  47.796  0.00  0.00    +0.023 A 
HETATM    9  C   LIG    1       58.920  49.149  47.312  0.00  0.00    +0.003 A 
HETATM   10  C   LIG    1       59.101  50.053  46.282  0.00  0.00    +0.020 A 
HETATM   11  C   LIG    1       60.358  50.238  45.733  0.00  0.00    +0.043 A 
HETATM   12 CL   LIG    1       60.581  51.374  44.439  0.00  0.00    -0.083 Cl
HETATM   13  C   LIG    1       61.437  49.523  46.219  0.00  0.00    +0.043 A 
ENDBRANCH   6   7
BRANCH   1  14
HETATM   14  S   LIG    1       62.543  49.249  50.092  0.00  0.00    -0.137 S 
HETATM   15  H   LIG    1       61.672  49.595  50.248  0.00  0.00    +0.105 HD
ENDBRANCH   1  14
TORSDOF 2

ENDMDL
