MODEL 1
REMARK VINA RESULT:      -5.3      0.000      0.000



ROOT
HETATM    1  C   LIG    1       44.246  29.955  54.746  0.00  0.00    +0.046 C 
HETATM    2  C   LIG    1       44.685  29.586  53.352  0.00  0.00    -0.028 A 
HETATM    3  C   LIG    1       43.995  28.623  52.642  0.00  0.00    +0.025 A 
HETATM    4  C   LIG    1       44.398  28.284  51.363  0.00  0.00    +0.041 A 
HETATM    5 CL   LIG    1       43.528  27.073  50.472  0.00  0.00    -0.084 Cl
HETATM    6  C   LIG    1       45.494  28.908  50.791  0.00  0.00    +0.022 A 
HETATM    7  C   LIG    1       46.187  29.871  51.497  0.00  0.00    +0.025 A 
HETATM    8  C   LIG    1       45.782  30.217  52.780  0.00  0.00    +0.039 A 
ENDROOT
BRANCH   8   9
HETATM    9  N   LIG    1       46.484  31.194  53.498  0.00  0.00    -0.278 N 
HETATM   10  C   LIG    1       46.136  32.533  53.606  0.00  0.00    +0.093 C 
HETATM   11  C   LIG    1       47.046  33.130  54.368  0.00  0.00    +0.085 C 
HETATM   12  N   LIG    1       47.977  32.176  54.749  0.00  0.00    -0.322 N 
HETATM   13  H   LIG    1       48.754  32.329  55.309  0.00  0.00    +0.148 HD
HETATM   14  C   LIG    1       47.610  30.996  54.209  0.00  0.00    +0.220 C 
BRANCH  14  15
HETATM   15  S   LIG    1       48.438  29.509  54.389  0.00  0.00    -0.137 S 
HETATM   16  H   LIG    1       48.552  28.848  53.715  0.00  0.00    +0.105 HD
ENDBRANCH  14  15
ENDBRANCH   8   9
TORSDOF 2

ENDMDL
MODEL 2
REMARK VINA RESULT:      -5.1     25.128     26.108



ROOT
HETATM    1  C   LIG    1       63.006  51.077  45.565  0.00  0.00    +0.046 C 
HETATM    2  C   LIG    1       61.538  50.846  45.315  0.00  0.00    -0.028 A 
HETATM    3  C   LIG    1       60.831  51.713  44.506  0.00  0.00    +0.025 A 
HETATM    4  C   LIG    1       59.482  51.502  44.276  0.00  0.00    +0.041 A 
HETATM    5 CL   LIG    1       58.595  52.594  43.258  0.00  0.00    -0.084 Cl
HETATM    6  C   LIG    1       58.840  50.422  44.856  0.00  0.00    +0.022 A 
HETATM    7  C   LIG    1       59.543  49.552  45.666  0.00  0.00    +0.025 A 
HETATM    8  C   LIG    1       60.897  49.759  45.894  0.00  0.00    +0.039 A 
ENDROOT
BRANCH   8   9
HETATM    9  N   LIG    1       61.613  48.878  46.716  0.00  0.00    -0.278 N 
HETATM   10  C   LIG    1       61.695  48.939  48.100  0.00  0.00    +0.093 C 
HETATM   11  C   LIG    1       62.462  47.933  48.507  0.00  0.00    +0.085 C 
HETATM   12  N   LIG    1       62.871  47.227  47.386  0.00  0.00    -0.322 N 
HETATM   13  H   LIG    1       63.440  46.442  47.383  0.00  0.00    +0.148 HD
HETATM   14  C   LIG    1       62.335  47.820  46.301  0.00  0.00    +0.220 C 
BRANCH  14  15
HETATM   15  S   LIG    1       62.546  47.321  44.676  0.00  0.00    -0.137 S 
HETATM   16  H   LIG    1       61.928  46.813  44.164  0.00  0.00    +0.105 HD
ENDBRANCH  14  15
ENDBRANCH   8   9
TORSDOF 2

ENDMDL
MODEL 3
REMARK VINA RESULT:      -5.0     10.128     10.978



ROOT
HETATM    1  C   LIG    1       42.562  19.444  55.325  0.00  0.00    +0.046 C 
HETATM    2  C   LIG    1       41.414  20.171  54.673  0.00  0.00    -0.028 A 
HETATM    3  C   LIG    1       40.974  19.785  53.422  0.00  0.00    +0.025 A 
HETATM    4  C   LIG    1       39.920  20.453  52.822  0.00  0.00    +0.041 A 
HETATM    5 CL   LIG    1       39.368  19.966  51.250  0.00  0.00    -0.084 Cl
HETATM    6  C   LIG    1       39.306  21.509  53.474  0.00  0.00    +0.022 A 
HETATM    7  C   LIG    1       39.743  21.898  54.724  0.00  0.00    +0.025 A 
HETATM    8  C   LIG    1       40.797  21.227  55.330  0.00  0.00    +0.039 A 
ENDROOT
BRANCH   8   9
HETATM    9  N   LIG    1       41.243  21.620  56.599  0.00  0.00    -0.278 N 
HETATM   10  C   LIG    1       42.119  22.662  56.869  0.00  0.00    +0.093 C 
HETATM   11  C   LIG    1       42.293  22.718  58.185  0.00  0.00    +0.085 C 
HETATM   12  N   LIG    1       41.529  21.714  58.760  0.00  0.00    -0.322 N 
HETATM   13  H   LIG    1       41.462  21.520  59.708  0.00  0.00    +0.148 HD
HETATM   14  C   LIG    1       40.890  21.058  57.771  0.00  0.00    +0.220 C 
BRANCH  14  15
HETATM   15  S   LIG    1       39.824  19.733  57.970  0.00  0.00    -0.137 S 
HETATM   16  H   LIG    1       39.695  19.235  58.769  0.00  0.00    +0.105 HD
ENDBRANCH  14  15
ENDBRANCH   8   9
TORSDOF 2

ENDMDL
MODEL 4
REMARK VINA RESULT:      -4.8     26.285     27.573



ROOT
HETATM    1  C   LIG    1       62.228  48.046  44.504  0.00  0.00    +0.046 C 
HETATM    2  C   LIG    1       61.788  49.486  44.576  0.00  0.00    -0.028 A 
HETATM    3  C   LIG    1       60.475  49.821  44.311  0.00  0.00    +0.025 A 
HETATM    4  C   LIG    1       60.071  51.143  44.377  0.00  0.00    +0.041 A 
HETATM    5 CL   LIG    1       58.419  51.562  44.043  0.00  0.00    -0.084 Cl
HETATM    6  C   LIG    1       60.981  52.131  44.708  0.00  0.00    +0.022 A 
HETATM    7  C   LIG    1       62.295  51.801  44.974  0.00  0.00    +0.025 A 
HETATM    8  C   LIG    1       62.702  50.475  44.913  0.00  0.00    +0.039 A 
ENDROOT
BRANCH   8   9
HETATM    9  N   LIG    1       64.035  50.137  45.183  0.00  0.00    -0.278 N 
HETATM   10  C   LIG    1       65.078  50.139  44.267  0.00  0.00    +0.093 C 
HETATM   11  C   LIG    1       66.181  49.763  44.904  0.00  0.00    +0.085 C 
HETATM   12  N   LIG    1       65.847  49.519  46.228  0.00  0.00    -0.322 N 
HETATM   13  H   LIG    1       66.457  49.231  46.926  0.00  0.00    +0.148 HD
HETATM   14  C   LIG    1       64.530  49.760  46.377  0.00  0.00    +0.220 C 
BRANCH  14  15
HETATM   15  S   LIG    1       63.638  49.602  47.830  0.00  0.00    -0.137 S 
HETATM   16  H   LIG    1       62.907  49.013  47.976  0.00  0.00    +0.105 HD
ENDBRANCH  14  15
ENDBRANCH   8   9
TORSDOF 2

ENDMDL
MODEL 5
REMARK VINA RESULT:      -4.8     20.693     21.160



ROOT
HETATM    1  C   LIG    1       27.479  41.114  46.314  0.00  0.00    +0.046 C 
HETATM    2  C   LIG    1       28.956  40.880  46.504  0.00  0.00    -0.028 A 
HETATM    3  C   LIG    1       29.588  39.861  45.818  0.00  0.00    +0.025 A 
HETATM    4  C   LIG    1       30.944  39.645  45.993  0.00  0.00    +0.041 A 
HETATM    5 CL   LIG    1       31.736  38.364  45.129  0.00  0.00    -0.084 Cl
HETATM    6  C   LIG    1       31.669  40.448  46.855  0.00  0.00    +0.022 A 
HETATM    7  C   LIG    1       31.042  41.468  47.544  0.00  0.00    +0.025 A 
HETATM    8  C   LIG    1       29.682  41.690  47.366  0.00  0.00    +0.039 A 
ENDROOT
BRANCH   8   9
HETATM    9  N   LIG    1       29.044  42.724  48.064  0.00  0.00    -0.278 N 
HETATM   10  C   LIG    1       28.604  42.670  49.379  0.00  0.00    +0.093 C 
HETATM   11  C   LIG    1       28.054  43.843  49.673  0.00  0.00    +0.085 C 
HETATM   12  N   LIG    1       28.140  44.649  48.549  0.00  0.00    -0.322 N 
HETATM   13  H   LIG    1       27.819  45.562  48.475  0.00  0.00    +0.148 HD
HETATM   14  C   LIG    1       28.754  43.945  47.577  0.00  0.00    +0.220 C 
BRANCH  14  15
HETATM   15  S   LIG    1       29.097  44.505  45.995  0.00  0.00    -0.137 S 
HETATM   16  H   LIG    1       28.902  45.370  45.655  0.00  0.00    +0.105 HD
ENDBRANCH  14  15
ENDBRANCH   8   9
TORSDOF 2

ENDMDL
MODEL 6
REMARK VINA RESULT:      -4.6     28.897     30.236



ROOT
HETATM    1  C   LIG    1       36.604  54.035  71.095  0.00  0.00    +0.046 C 
HETATM    2  C   LIG    1       36.227  53.307  69.830  0.00  0.00    -0.028 A 
HETATM    3  C   LIG    1       35.579  52.090  69.901  0.00  0.00    +0.025 A 
HETATM    4  C   LIG    1       35.232  51.421  68.740  0.00  0.00    +0.041 A 
HETATM    5 CL   LIG    1       34.418  49.890  68.832  0.00  0.00    -0.084 Cl
HETATM    6  C   LIG    1       35.535  51.970  67.506  0.00  0.00    +0.022 A 
HETATM    7  C   LIG    1       36.182  53.187  67.430  0.00  0.00    +0.025 A 
HETATM    8  C   LIG    1       36.527  53.863  68.594  0.00  0.00    +0.039 A 
ENDROOT
BRANCH   8   9
HETATM    9  N   LIG    1       37.184  55.098  68.520  0.00  0.00    -0.278 N 
HETATM   10  C   LIG    1       38.557  55.288  68.444  0.00  0.00    +0.093 C 
HETATM   11  C   LIG    1       38.785  56.595  68.388  0.00  0.00    +0.085 C 
HETATM   12  N   LIG    1       37.561  57.245  68.428  0.00  0.00    -0.322 N 
HETATM   13  H   LIG    1       37.423  58.205  68.401  0.00  0.00    +0.148 HD
HETATM   14  C   LIG    1       36.594  56.308  68.503  0.00  0.00    +0.220 C 
BRANCH  14  15
HETATM   15  S   LIG    1       34.910  56.607  68.575  0.00  0.00    -0.137 S 
HETATM   16  H   LIG    1       34.227  56.035  68.245  0.00  0.00    +0.105 HD
ENDBRANCH  14  15
ENDBRANCH   8   9
TORSDOF 2

ENDMDL
MODEL 7
REMARK VINA RESULT:      -4.5     33.155     34.639



ROOT
HETATM    1  C   LIG    1       56.679  58.687  34.232  0.00  0.00    +0.046 C 
HETATM    2  C   LIG    1       56.656  57.746  35.410  0.00  0.00    -0.028 A 
HETATM    3  C   LIG    1       55.986  56.542  35.318  0.00  0.00    +0.025 A 
HETATM    4  C   LIG    1       55.965  55.677  36.399  0.00  0.00    +0.041 A 
HETATM    5 CL   LIG    1       55.121  54.164  36.282  0.00  0.00    -0.084 Cl
HETATM    6  C   LIG    1       56.614  56.018  37.573  0.00  0.00    +0.022 A 
HETATM    7  C   LIG    1       57.286  57.220  37.669  0.00  0.00    +0.025 A 
HETATM    8  C   LIG    1       57.312  58.087  36.584  0.00  0.00    +0.039 A 
ENDROOT
BRANCH   8   9
HETATM    9  N   LIG    1       57.993  59.308  36.679  0.00  0.00    -0.278 N 
HETATM   10  C   LIG    1       57.415  60.548  36.913  0.00  0.00    +0.093 C 
HETATM   11  C   LIG    1       58.387  61.454  36.933  0.00  0.00    +0.085 C 
HETATM   12  N   LIG    1       59.587  60.797  36.713  0.00  0.00    -0.322 N 
HETATM   13  H   LIG    1       60.465  61.209  36.677  0.00  0.00    +0.148 HD
HETATM   14  C   LIG    1       59.324  59.483  36.565  0.00  0.00    +0.220 C 
BRANCH  14  15
HETATM   15  S   LIG    1       60.478  58.253  36.274  0.00  0.00    -0.137 S 
HETATM   16  H   LIG    1       61.382  58.255  36.568  0.00  0.00    +0.105 HD
ENDBRANCH  14  15
ENDBRANCH   8   9
TORSDOF 2

ENDMDL
MODEL 8
REMARK VINA RESULT:      -4.5     32.521     33.523



ROOT
HETATM    1  C   LIG    1       51.648  60.697  59.962  0.00  0.00    +0.046 C 
HETATM    2  C   LIG    1       53.150  60.822  59.982  0.00  0.00    -0.028 A 
HETATM    3  C   LIG    1       53.906  59.943  60.732  0.00  0.00    +0.025 A 
HETATM    4  C   LIG    1       55.285  60.058  60.752  0.00  0.00    +0.041 A 
HETATM    5 CL   LIG    1       56.233  58.951  61.695  0.00  0.00    -0.084 Cl
HETATM    6  C   LIG    1       55.909  61.054  60.021  0.00  0.00    +0.022 A 
HETATM    7  C   LIG    1       55.157  61.935  59.270  0.00  0.00    +0.025 A 
HETATM    8  C   LIG    1       53.773  61.819  59.245  0.00  0.00    +0.039 A 
ENDROOT
BRANCH   8   9
HETATM    9  N   LIG    1       53.008  62.712  58.483  0.00  0.00    -0.278 N 
HETATM   10  C   LIG    1       52.648  62.548  57.153  0.00  0.00    +0.093 C 
HETATM   11  C   LIG    1       51.927  63.604  56.793  0.00  0.00    +0.085 C 
HETATM   12  N   LIG    1       51.823  64.445  57.890  0.00  0.00    -0.322 N 
HETATM   13  H   LIG    1       51.351  65.292  57.917  0.00  0.00    +0.148 HD
HETATM   14  C   LIG    1       52.488  63.877  58.916  0.00  0.00    +0.220 C 
BRANCH  14  15
HETATM   15  S   LIG    1       52.652  64.528  60.491  0.00  0.00    -0.137 S 
HETATM   16  H   LIG    1       52.603  64.039  61.304  0.00  0.00    +0.105 HD
ENDBRANCH  14  15
ENDBRANCH   8   9
TORSDOF 2

ENDMDL
MODEL 9
REMARK VINA RESULT:      -4.4     32.083     33.557



ROOT
HETATM    1  C   LIG    1       54.687  63.378  58.723  0.00  0.00    +0.046 C 
HETATM    2  C   LIG    1       54.047  62.119  59.251  0.00  0.00    -0.028 A 
HETATM    3  C   LIG    1       54.815  61.178  59.908  0.00  0.00    +0.025 A 
HETATM    4  C   LIG    1       54.229  60.022  60.392  0.00  0.00    +0.041 A 
HETATM    5 CL   LIG    1       55.196  58.839  61.218  0.00  0.00    -0.084 Cl
HETATM    6  C   LIG    1       52.872  59.806  60.220  0.00  0.00    +0.022 A 
HETATM    7  C   LIG    1       52.100  60.745  59.564  0.00  0.00    +0.025 A 
HETATM    8  C   LIG    1       52.686  61.908  59.081  0.00  0.00    +0.039 A 
ENDROOT
BRANCH   8   9
HETATM    9  N   LIG    1       51.905  62.862  58.415  0.00  0.00    -0.278 N 
HETATM   10  C   LIG    1       51.739  62.964  57.041  0.00  0.00    +0.093 C 
HETATM   11  C   LIG    1       50.928  63.990  56.804  0.00  0.00    +0.085 C 
HETATM   12  N   LIG    1       50.575  64.546  58.023  0.00  0.00    -0.322 N 
HETATM   13  H   LIG    1       49.990  65.309  58.154  0.00  0.00    +0.148 HD
HETATM   14  C   LIG    1       51.180  63.836  58.997  0.00  0.00    +0.220 C 
BRANCH  14  15
HETATM   15  S   LIG    1       51.056  64.129  60.679  0.00  0.00    -0.137 S 
HETATM   16  H   LIG    1       51.472  63.622  61.366  0.00  0.00    +0.105 HD
ENDBRANCH  14  15
ENDBRANCH   8   9
TORSDOF 2

ENDMDL
