MODEL 1
REMARK VINA RESULT:      -5.2      0.000      0.000



ROOT
HETATM    1  C   LIG    1       46.471  31.788  53.844  0.00  0.00    +0.008 A 
HETATM    2  C   LIG    1       46.553  30.522  54.411  0.00  0.00    +0.016 A 
HETATM    3  C   LIG    1       45.788  29.490  53.905  0.00  0.00    +0.024 A 
HETATM    4  C   LIG    1       44.938  29.717  52.830  0.00  0.00    +0.036 A 
HETATM    5  C   LIG    1       44.856  30.983  52.265  0.00  0.00    +0.024 A 
HETATM    6  C   LIG    1       45.616  32.016  52.774  0.00  0.00    +0.016 A 
ENDROOT
BRANCH   4   7
HETATM    7  N   LIG    1       44.161  28.668  52.316  0.00  0.00    -0.278 N 
HETATM    8  C   LIG    1       43.172  27.976  52.999  0.00  0.00    +0.093 C 
HETATM    9  C   LIG    1       42.670  27.061  52.176  0.00  0.00    +0.085 C 
HETATM   10  N   LIG    1       43.338  27.166  50.965  0.00  0.00    -0.322 N 
HETATM   11  H   LIG    1       43.178  26.622  50.178  0.00  0.00    +0.148 HD
HETATM   12  C   LIG    1       44.242  28.159  51.071  0.00  0.00    +0.220 C 
BRANCH  12  13
HETATM   13  S   LIG    1       45.314  28.677  49.842  0.00  0.00    -0.137 S 
HETATM   14  H   LIG    1       45.756  29.517  49.804  0.00  0.00    +0.105 HD
ENDBRANCH  12  13
ENDBRANCH   4   7
BRANCH   1  16
HETATM   15  C   LIG    1       49.013  32.233  54.762  0.00  0.00    +0.090 C 
HETATM   16  S   LIG    1       47.448  33.106  54.490  0.00  0.00    -0.129 S 
ENDBRANCH   1  16
TORSDOF 3

ENDMDL
MODEL 2
REMARK VINA RESULT:      -5.0      9.545     11.486



ROOT
HETATM    1  C   LIG    1       40.951  19.830  53.940  0.00  0.00    +0.008 A 
HETATM    2  C   LIG    1       40.170  20.879  54.412  0.00  0.00    +0.016 A 
HETATM    3  C   LIG    1       40.565  21.582  55.533  0.00  0.00    +0.024 A 
HETATM    4  C   LIG    1       41.742  21.242  56.188  0.00  0.00    +0.036 A 
HETATM    5  C   LIG    1       42.521  20.194  55.716  0.00  0.00    +0.024 A 
HETATM    6  C   LIG    1       42.125  19.487  54.599  0.00  0.00    +0.016 A 
ENDROOT
BRANCH   4   7
HETATM    7  N   LIG    1       42.143  21.957  57.327  0.00  0.00    -0.278 N 
HETATM    8  C   LIG    1       42.758  23.200  57.334  0.00  0.00    +0.093 C 
HETATM    9  C   LIG    1       42.978  23.540  58.600  0.00  0.00    +0.085 C 
HETATM   10  N   LIG    1       42.504  22.515  59.404  0.00  0.00    -0.322 N 
HETATM   11  H   LIG    1       42.532  22.492  60.373  0.00  0.00    +0.148 HD
HETATM   12  C   LIG    1       41.992  21.559  58.605  0.00  0.00    +0.220 C 
BRANCH  12  13
HETATM   13  S   LIG    1       41.283  20.090  59.123  0.00  0.00    -0.137 S 
HETATM   14  H   LIG    1       40.895  19.927  59.975  0.00  0.00    +0.105 HD
ENDBRANCH  12  13
ENDBRANCH   4   7
BRANCH   1  16
HETATM   15  C   LIG    1       39.322  20.141  51.760  0.00  0.00    +0.090 C 
HETATM   16  S   LIG    1       40.448  18.933  52.509  0.00  0.00    -0.129 S 
ENDBRANCH   1  16
TORSDOF 3

ENDMDL
MODEL 3
REMARK VINA RESULT:      -4.9     25.695     26.660



ROOT
HETATM    1  C   LIG    1       62.534  47.793  46.051  0.00  0.00    +0.008 A 
HETATM    2  C   LIG    1       62.216  47.980  44.711  0.00  0.00    +0.016 A 
HETATM    3  C   LIG    1       61.427  49.048  44.332  0.00  0.00    +0.024 A 
HETATM    4  C   LIG    1       60.952  49.935  45.289  0.00  0.00    +0.036 A 
HETATM    5  C   LIG    1       61.270  49.748  46.628  0.00  0.00    +0.024 A 
HETATM    6  C   LIG    1       62.054  48.678  47.008  0.00  0.00    +0.016 A 
ENDROOT
BRANCH   4   7
HETATM    7  N   LIG    1       60.151  51.020  44.903  0.00  0.00    -0.278 N 
HETATM    8  C   LIG    1       60.605  52.275  44.523  0.00  0.00    +0.093 C 
HETATM    9  C   LIG    1       59.546  53.022  44.233  0.00  0.00    +0.085 C 
HETATM   10  N   LIG    1       58.412  52.247  44.427  0.00  0.00    -0.322 N 
HETATM   11  H   LIG    1       57.496  52.535  44.291  0.00  0.00    +0.148 HD
HETATM   12  C   LIG    1       58.806  51.024  44.831  0.00  0.00    +0.220 C 
BRANCH  12  13
HETATM   13  S   LIG    1       57.776  49.708  45.200  0.00  0.00    -0.137 S 
HETATM   14  H   LIG    1       57.988  48.788  45.100  0.00  0.00    +0.105 HD
ENDBRANCH  12  13
ENDBRANCH   4   7
BRANCH   1  16
HETATM   15  C   LIG    1       63.645  46.735  48.320  0.00  0.00    +0.090 C 
HETATM   16  S   LIG    1       63.541  46.431  46.535  0.00  0.00    -0.129 S 
ENDBRANCH   1  16
TORSDOF 3

ENDMDL
MODEL 4
REMARK VINA RESULT:      -4.8     25.098     27.358



ROOT
HETATM    1  C   LIG    1       63.784  51.056  44.795  0.00  0.00    +0.008 A 
HETATM    2  C   LIG    1       63.339  49.750  44.630  0.00  0.00    +0.016 A 
HETATM    3  C   LIG    1       61.987  49.473  44.661  0.00  0.00    +0.024 A 
HETATM    4  C   LIG    1       61.072  50.500  44.855  0.00  0.00    +0.036 A 
HETATM    5  C   LIG    1       61.517  51.804  45.021  0.00  0.00    +0.024 A 
HETATM    6  C   LIG    1       62.869  52.081  44.995  0.00  0.00    +0.016 A 
ENDROOT
BRANCH   4   7
HETATM    7  N   LIG    1       59.698  50.218  44.886  0.00  0.00    -0.278 N 
HETATM    8  C   LIG    1       58.792  50.464  43.865  0.00  0.00    +0.093 C 
HETATM    9  C   LIG    1       57.594  50.060  44.275  0.00  0.00    +0.085 C 
HETATM   10  N   LIG    1       57.732  49.554  45.558  0.00  0.00    -0.322 N 
HETATM   11  H   LIG    1       57.020  49.188  46.105  0.00  0.00    +0.148 HD
HETATM   12  C   LIG    1       59.028  49.655  45.911  0.00  0.00    +0.220 C 
BRANCH  12  13
HETATM   13  S   LIG    1       59.704  49.164  47.404  0.00  0.00    -0.137 S 
HETATM   14  H   LIG    1       59.250  49.131  48.238  0.00  0.00    +0.105 HD
ENDBRANCH  12  13
ENDBRANCH   4   7
BRANCH   1  16
HETATM   15  C   LIG    1       65.945  51.047  46.478  0.00  0.00    +0.090 C 
HETATM   16  S   LIG    1       65.510  51.410  44.755  0.00  0.00    -0.129 S 
ENDBRANCH   1  16
TORSDOF 3

ENDMDL
MODEL 5
REMARK VINA RESULT:      -4.8     25.094     26.188



ROOT
HETATM    1  C   LIG    1       59.526  50.625  45.347  0.00  0.00    +0.008 A 
HETATM    2  C   LIG    1       58.954  49.774  46.286  0.00  0.00    +0.016 A 
HETATM    3  C   LIG    1       59.759  49.075  47.163  0.00  0.00    +0.024 A 
HETATM    4  C   LIG    1       61.139  49.221  47.108  0.00  0.00    +0.036 A 
HETATM    5  C   LIG    1       61.710  50.070  46.169  0.00  0.00    +0.024 A 
HETATM    6  C   LIG    1       60.907  50.766  45.288  0.00  0.00    +0.016 A 
ENDROOT
BRANCH   4   7
HETATM    7  N   LIG    1       61.955  48.510  48.000  0.00  0.00    -0.278 N 
HETATM    8  C   LIG    1       62.086  48.757  49.359  0.00  0.00    +0.093 C 
HETATM    9  C   LIG    1       62.948  47.875  49.853  0.00  0.00    +0.085 C 
HETATM   10  N   LIG    1       63.369  47.061  48.812  0.00  0.00    -0.322 N 
HETATM   11  H   LIG    1       64.000  46.328  48.882  0.00  0.00    +0.148 HD
HETATM   12  C   LIG    1       62.745  47.464  47.688  0.00  0.00    +0.220 C 
BRANCH  12  13
HETATM   13  S   LIG    1       62.932  46.775  46.133  0.00  0.00    -0.137 S 
HETATM   14  H   LIG    1       63.727  46.778  45.613  0.00  0.00    +0.105 HD
ENDBRANCH  12  13
ENDBRANCH   4   7
BRANCH   1  16
HETATM   15  C   LIG    1       59.578  52.934  43.875  0.00  0.00    +0.090 C 
HETATM   16  S   LIG    1       58.500  51.518  44.227  0.00  0.00    -0.129 S 
ENDBRANCH   1  16
TORSDOF 3

ENDMDL
MODEL 6
REMARK VINA RESULT:      -4.5     20.140     21.281



ROOT
HETATM    1  C   LIG    1       30.544  39.927  46.004  0.00  0.00    +0.008 A 
HETATM    2  C   LIG    1       31.292  40.607  46.958  0.00  0.00    +0.016 A 
HETATM    3  C   LIG    1       30.723  41.645  47.668  0.00  0.00    +0.024 A 
HETATM    4  C   LIG    1       29.405  42.010  47.429  0.00  0.00    +0.036 A 
HETATM    5  C   LIG    1       28.659  41.331  46.475  0.00  0.00    +0.024 A 
HETATM    6  C   LIG    1       29.227  40.296  45.761  0.00  0.00    +0.016 A 
ENDROOT
BRANCH   4   7
HETATM    7  N   LIG    1       28.827  43.066  48.151  0.00  0.00    -0.278 N 
HETATM    8  C   LIG    1       28.451  43.031  49.486  0.00  0.00    +0.093 C 
HETATM    9  C   LIG    1       27.946  44.219  49.799  0.00  0.00    +0.085 C 
HETATM   10  N   LIG    1       27.999  45.017  48.666  0.00  0.00    -0.322 N 
HETATM   11  H   LIG    1       27.698  45.937  48.602  0.00  0.00    +0.148 HD
HETATM   12  C   LIG    1       28.547  44.293  47.671  0.00  0.00    +0.220 C 
BRANCH  12  13
HETATM   13  S   LIG    1       28.828  44.835  46.071  0.00  0.00    -0.137 S 
HETATM   14  H   LIG    1       28.320  44.598  45.304  0.00  0.00    +0.105 HD
ENDBRANCH  12  13
ENDBRANCH   4   7
BRANCH   1  16
HETATM   15  C   LIG    1       29.772  37.802  44.457  0.00  0.00    +0.090 C 
HETATM   16  S   LIG    1       31.269  38.600  45.098  0.00  0.00    -0.129 S 
ENDBRANCH   1  16
TORSDOF 3

ENDMDL
MODEL 7
REMARK VINA RESULT:      -4.5      2.898      4.789



ROOT
HETATM    1  C   LIG    1       48.087  29.332  50.954  0.00  0.00    +0.008 A 
HETATM    2  C   LIG    1       46.738  29.516  50.677  0.00  0.00    +0.016 A 
HETATM    3  C   LIG    1       45.888  29.970  51.666  0.00  0.00    +0.024 A 
HETATM    4  C   LIG    1       46.380  30.243  52.935  0.00  0.00    +0.036 A 
HETATM    5  C   LIG    1       47.728  30.057  53.211  0.00  0.00    +0.024 A 
HETATM    6  C   LIG    1       48.578  29.599  52.225  0.00  0.00    +0.016 A 
ENDROOT
BRANCH   4   7
HETATM    7  N   LIG    1       45.516  30.705  53.939  0.00  0.00    -0.278 N 
HETATM    8  C   LIG    1       44.409  30.031  54.435  0.00  0.00    +0.093 C 
HETATM    9  C   LIG    1       43.852  30.793  55.370  0.00  0.00    +0.085 C 
HETATM   10  N   LIG    1       44.602  31.955  55.476  0.00  0.00    -0.322 N 
HETATM   11  H   LIG    1       44.427  32.692  56.081  0.00  0.00    +0.148 HD
HETATM   12  C   LIG    1       45.618  31.877  54.595  0.00  0.00    +0.220 C 
BRANCH  12  13
HETATM   13  S   LIG    1       46.823  33.067  54.344  0.00  0.00    -0.137 S 
HETATM   14  H   LIG    1       46.690  33.923  53.954  0.00  0.00    +0.105 HD
ENDBRANCH  12  13
ENDBRANCH   4   7
BRANCH   1  16
HETATM   15  C   LIG    1       48.057  28.811  48.265  0.00  0.00    +0.090 C 
HETATM   16  S   LIG    1       49.173  28.753  49.693  0.00  0.00    -0.129 S 
ENDBRANCH   1  16
TORSDOF 3

ENDMDL
MODEL 8
REMARK VINA RESULT:      -4.4     30.201     31.591



ROOT
HETATM    1  C   LIG    1       35.695  54.894  68.473  0.00  0.00    +0.008 A 
HETATM    2  C   LIG    1       36.752  54.134  67.987  0.00  0.00    +0.016 A 
HETATM    3  C   LIG    1       38.009  54.694  67.876  0.00  0.00    +0.024 A 
HETATM    4  C   LIG    1       38.218  56.015  68.250  0.00  0.00    +0.036 A 
HETATM    5  C   LIG    1       37.161  56.773  68.735  0.00  0.00    +0.024 A 
HETATM    6  C   LIG    1       35.903  56.217  68.842  0.00  0.00    +0.016 A 
ENDROOT
BRANCH   4   7
HETATM    7  N   LIG    1       39.496  56.582  68.137  0.00  0.00    -0.278 N 
HETATM    8  C   LIG    1       40.003  57.232  67.022  0.00  0.00    +0.093 C 
HETATM    9  C   LIG    1       41.241  57.625  67.306  0.00  0.00    +0.085 C 
HETATM   10  N   LIG    1       41.526  57.229  68.603  0.00  0.00    -0.322 N 
HETATM   11  H   LIG    1       42.359  57.383  69.075  0.00  0.00    +0.148 HD
HETATM   12  C   LIG    1       40.443  56.597  69.096  0.00  0.00    +0.220 C 
BRANCH  12  13
HETATM   13  S   LIG    1       40.299  55.922  70.662  0.00  0.00    -0.137 S 
HETATM   14  H   LIG    1       39.510  55.551  71.039  0.00  0.00    +0.105 HD
ENDBRANCH  12  13
ENDBRANCH   4   7
BRANCH   1  16
HETATM   15  C   LIG    1       34.494  52.437  68.319  0.00  0.00    +0.090 C 
HETATM   16  S   LIG    1       34.090  54.180  68.616  0.00  0.00    -0.129 S 
ENDBRANCH   1  16
TORSDOF 3

ENDMDL
MODEL 9
REMARK VINA RESULT:      -4.3     32.701     34.434



ROOT
HETATM    1  C   LIG    1       54.890  61.318  59.893  0.00  0.00    +0.008 A 
HETATM    2  C   LIG    1       53.571  60.896  60.013  0.00  0.00    +0.016 A 
HETATM    3  C   LIG    1       52.565  61.591  59.372  0.00  0.00    +0.024 A 
HETATM    4  C   LIG    1       52.870  62.710  58.608  0.00  0.00    +0.036 A 
HETATM    5  C   LIG    1       54.188  63.132  58.491  0.00  0.00    +0.024 A 
HETATM    6  C   LIG    1       55.194  62.442  59.135  0.00  0.00    +0.016 A 
ENDROOT
BRANCH   4   7
HETATM    7  N   LIG    1       51.847  63.416  57.957  0.00  0.00    -0.278 N 
HETATM    8  C   LIG    1       51.453  63.249  56.638  0.00  0.00    +0.093 C 
HETATM    9  C   LIG    1       50.458  64.096  56.397  0.00  0.00    +0.085 C 
HETATM   10  N   LIG    1       50.212  64.805  57.564  0.00  0.00    -0.322 N 
HETATM   11  H   LIG    1       49.538  65.493  57.680  0.00  0.00    +0.148 HD
HETATM   12  C   LIG    1       51.069  64.369  58.507  0.00  0.00    +0.220 C 
BRANCH  12  13
HETATM   13  S   LIG    1       51.162  64.936  60.119  0.00  0.00    -0.137 S 
HETATM   14  H   LIG    1       50.666  65.658  60.486  0.00  0.00    +0.105 HD
ENDBRANCH  12  13
ENDBRANCH   4   7
BRANCH   1  16
HETATM   15  C   LIG    1       55.242  58.990  61.293  0.00  0.00    +0.090 C 
HETATM   16  S   LIG    1       56.176  60.432  60.710  0.00  0.00    -0.129 S 
ENDBRANCH   1  16
TORSDOF 3

ENDMDL
