MODEL 1
REMARK VINA RESULT:      -5.2      0.000      0.000



ROOT
HETATM    1  C   LIG    1       46.670  31.917  53.952  0.00  0.00    +0.120 A 
HETATM    2  C   LIG    1       45.699  32.197  53.002  0.00  0.00    +0.047 A 
HETATM    3  C   LIG    1       44.898  31.182  52.513  0.00  0.00    +0.027 A 
HETATM    4  C   LIG    1       45.065  29.883  52.974  0.00  0.00    +0.036 A 
HETATM    5  C   LIG    1       46.039  29.605  53.924  0.00  0.00    +0.027 A 
HETATM    6  C   LIG    1       46.842  30.619  54.408  0.00  0.00    +0.047 A 
ENDROOT
BRANCH   4   7
HETATM    7  N   LIG    1       44.253  28.853  52.478  0.00  0.00    -0.278 N 
HETATM    8  C   LIG    1       43.231  28.218  53.167  0.00  0.00    +0.093 C 
HETATM    9  C   LIG    1       42.701  27.304  52.360  0.00  0.00    +0.085 C 
HETATM   10  N   LIG    1       43.383  27.353  51.154  0.00  0.00    -0.322 N 
HETATM   11  H   LIG    1       43.210  26.798  50.378  0.00  0.00    +0.148 HD
HETATM   12  C   LIG    1       44.325  28.312  51.246  0.00  0.00    +0.220 C 
BRANCH  12  13
HETATM   13  S   LIG    1       45.429  28.758  50.016  0.00  0.00    -0.137 S 
HETATM   14  H   LIG    1       46.375  28.759  50.089  0.00  0.00    +0.105 HD
ENDBRANCH  12  13
ENDBRANCH   4   7
BRANCH   1  16
HETATM   15  C   LIG    1       48.727  32.333  54.730  0.00  0.00    +0.277 C 
HETATM   16  O   LIG    1       47.457  32.916  54.432  0.00  0.00    -0.495 OA
ENDBRANCH   1  16
TORSDOF 3

ENDMDL
MODEL 2
REMARK VINA RESULT:      -5.2      3.197      5.407



ROOT
HETATM    1  C   LIG    1       44.015  28.646  52.082  0.00  0.00    +0.120 A 
HETATM    2  C   LIG    1       44.154  28.735  53.459  0.00  0.00    +0.047 A 
HETATM    3  C   LIG    1       45.043  29.639  54.006  0.00  0.00    +0.027 A 
HETATM    4  C   LIG    1       45.798  30.458  53.178  0.00  0.00    +0.036 A 
HETATM    5  C   LIG    1       45.659  30.367  51.799  0.00  0.00    +0.027 A 
HETATM    6  C   LIG    1       44.773  29.459  51.253  0.00  0.00    +0.047 A 
ENDROOT
BRANCH   4   7
HETATM    7  N   LIG    1       46.701  31.376  53.733  0.00  0.00    -0.278 N 
HETATM    8  C   LIG    1       46.401  32.663  54.154  0.00  0.00    +0.093 C 
HETATM    9  C   LIG    1       47.519  33.212  54.620  0.00  0.00    +0.085 C 
HETATM   10  N   LIG    1       48.536  32.278  54.497  0.00  0.00    -0.322 N 
HETATM   11  H   LIG    1       49.461  32.405  54.758  0.00  0.00    +0.148 HD
HETATM   12  C   LIG    1       48.012  31.159  53.957  0.00  0.00    +0.220 C 
BRANCH  12  13
HETATM   13  S   LIG    1       48.866  29.717  53.608  0.00  0.00    -0.137 S 
HETATM   14  H   LIG    1       49.150  29.069  54.242  0.00  0.00    +0.105 HD
ENDBRANCH  12  13
ENDBRANCH   4   7
BRANCH   1  16
HETATM   15  C   LIG    1       43.906  26.630  51.114  0.00  0.00    +0.277 C 
HETATM   16  O   LIG    1       43.139  27.756  51.544  0.00  0.00    -0.495 OA
ENDBRANCH   1  16
TORSDOF 3

ENDMDL
MODEL 3
REMARK VINA RESULT:      -5.1     30.638     32.177



ROOT
HETATM    1  C   LIG    1       55.333  53.418  38.574  0.00  0.00    +0.120 A 
HETATM    2  C   LIG    1       55.989  54.479  39.181  0.00  0.00    +0.047 A 
HETATM    3  C   LIG    1       56.452  55.533  38.418  0.00  0.00    +0.027 A 
HETATM    4  C   LIG    1       56.260  55.532  37.043  0.00  0.00    +0.036 A 
HETATM    5  C   LIG    1       55.604  54.469  36.436  0.00  0.00    +0.027 A 
HETATM    6  C   LIG    1       55.146  53.413  37.199  0.00  0.00    +0.047 A 
ENDROOT
BRANCH   4   7
HETATM    7  N   LIG    1       56.729  56.601  36.268  0.00  0.00    -0.278 N 
HETATM    8  C   LIG    1       55.974  57.673  35.814  0.00  0.00    +0.093 C 
HETATM    9  C   LIG    1       56.777  58.472  35.117  0.00  0.00    +0.085 C 
HETATM   10  N   LIG    1       58.045  57.914  35.124  0.00  0.00    -0.322 N 
HETATM   11  H   LIG    1       58.833  58.282  34.694  0.00  0.00    +0.148 HD
HETATM   12  C   LIG    1       57.996  56.772  35.839  0.00  0.00    +0.220 C 
BRANCH  12  13
HETATM   13  S   LIG    1       59.309  55.717  36.140  0.00  0.00    -0.137 S 
HETATM   14  H   LIG    1       60.039  55.554  35.555  0.00  0.00    +0.105 HD
ENDBRANCH  12  13
ENDBRANCH   4   7
BRANCH   1  16
HETATM   15  C   LIG    1       53.638  51.966  38.749  0.00  0.00    +0.277 C 
HETATM   16  O   LIG    1       54.878  52.381  39.325  0.00  0.00    -0.495 OA
ENDBRANCH   1  16
TORSDOF 3

ENDMDL
MODEL 4
REMARK VINA RESULT:      -5.0     27.026     28.485



ROOT
HETATM    1  C   LIG    1       48.201  50.781  35.498  0.00  0.00    +0.120 A 
HETATM    2  C   LIG    1       49.132  50.187  34.660  0.00  0.00    +0.047 A 
HETATM    3  C   LIG    1       50.469  50.519  34.767  0.00  0.00    +0.027 A 
HETATM    4  C   LIG    1       50.880  51.446  35.714  0.00  0.00    +0.036 A 
HETATM    5  C   LIG    1       49.947  52.041  36.552  0.00  0.00    +0.027 A 
HETATM    6  C   LIG    1       48.610  51.712  36.441  0.00  0.00    +0.047 A 
ENDROOT
BRANCH   4   7
HETATM    7  N   LIG    1       52.237  51.784  35.823  0.00  0.00    -0.278 N 
HETATM    8  C   LIG    1       52.938  51.973  37.005  0.00  0.00    +0.093 C 
HETATM    9  C   LIG    1       54.193  52.278  36.691  0.00  0.00    +0.085 C 
HETATM   10  N   LIG    1       54.297  52.286  35.309  0.00  0.00    -0.322 N 
HETATM   11  H   LIG    1       55.100  52.476  34.799  0.00  0.00    +0.148 HD
HETATM   12  C   LIG    1       53.090  51.975  34.797  0.00  0.00    +0.220 C 
BRANCH  12  13
HETATM   13  S   LIG    1       52.704  51.853  33.134  0.00  0.00    -0.137 S 
HETATM   14  H   LIG    1       51.829  51.810  32.766  0.00  0.00    +0.105 HD
ENDBRANCH  12  13
ENDBRANCH   4   7
BRANCH   1  16
HETATM   15  C   LIG    1       46.803  49.032  35.505  0.00  0.00    +0.277 C 
HETATM   16  O   LIG    1       46.886  50.454  35.393  0.00  0.00    -0.495 OA
ENDBRANCH   1  16
TORSDOF 3

ENDMDL
MODEL 5
REMARK VINA RESULT:      -5.0      9.864     11.392



ROOT
HETATM    1  C   LIG    1       40.955  19.996  53.860  0.00  0.00    +0.120 A 
HETATM    2  C   LIG    1       40.179  21.028  54.367  0.00  0.00    +0.047 A 
HETATM    3  C   LIG    1       40.559  21.672  55.529  0.00  0.00    +0.027 A 
HETATM    4  C   LIG    1       41.718  21.285  56.189  0.00  0.00    +0.036 A 
HETATM    5  C   LIG    1       42.493  20.251  55.681  0.00  0.00    +0.027 A 
HETATM    6  C   LIG    1       42.110  19.606  54.522  0.00  0.00    +0.047 A 
ENDROOT
BRANCH   4   7
HETATM    7  N   LIG    1       42.104  21.937  57.368  0.00  0.00    -0.278 N 
HETATM    8  C   LIG    1       42.712  23.182  57.451  0.00  0.00    +0.093 C 
HETATM    9  C   LIG    1       42.917  23.452  58.736  0.00  0.00    +0.085 C 
HETATM   10  N   LIG    1       42.442  22.381  59.478  0.00  0.00    -0.322 N 
HETATM   11  H   LIG    1       42.461  22.305  60.445  0.00  0.00    +0.148 HD
HETATM   12  C   LIG    1       41.943  21.468  58.622  0.00  0.00    +0.220 C 
BRANCH  12  13
HETATM   13  S   LIG    1       41.238  19.968  59.050  0.00  0.00    -0.137 S 
HETATM   14  H   LIG    1       41.384  19.495  59.860  0.00  0.00    +0.105 HD
ENDBRANCH  12  13
ENDBRANCH   4   7
BRANCH   1  16
HETATM   15  C   LIG    1       39.648  20.221  52.057  0.00  0.00    +0.277 C 
HETATM   16  O   LIG    1       40.581  19.364  52.716  0.00  0.00    -0.495 OA
ENDBRANCH   1  16
TORSDOF 3

ENDMDL
MODEL 6
REMARK VINA RESULT:      -4.9     25.044     26.013



ROOT
HETATM    1  C   LIG    1       58.795  50.890  44.905  0.00  0.00    +0.120 A 
HETATM    2  C   LIG    1       60.158  51.114  44.786  0.00  0.00    +0.047 A 
HETATM    3  C   LIG    1       61.046  50.398  45.565  0.00  0.00    +0.027 A 
HETATM    4  C   LIG    1       60.574  49.455  46.468  0.00  0.00    +0.036 A 
HETATM    5  C   LIG    1       59.208  49.233  46.588  0.00  0.00    +0.027 A 
HETATM    6  C   LIG    1       58.321  49.953  45.811  0.00  0.00    +0.047 A 
ENDROOT
BRANCH   4   7
HETATM    7  N   LIG    1       61.475  48.729  47.260  0.00  0.00    -0.278 N 
HETATM    8  C   LIG    1       61.637  48.854  48.632  0.00  0.00    +0.093 C 
HETATM    9  C   LIG    1       62.581  47.997  49.011  0.00  0.00    +0.085 C 
HETATM   10  N   LIG    1       63.024  47.325  47.883  0.00  0.00    -0.322 N 
HETATM   11  H   LIG    1       63.710  46.640  47.860  0.00  0.00    +0.148 HD
HETATM   12  C   LIG    1       62.330  47.784  46.823  0.00  0.00    +0.220 C 
BRANCH  12  13
HETATM   13  S   LIG    1       62.510  47.265  45.202  0.00  0.00    -0.137 S 
HETATM   14  H   LIG    1       63.247  46.781  44.850  0.00  0.00    +0.105 HD
ENDBRANCH  12  13
ENDBRANCH   4   7
BRANCH   1  16
HETATM   15  C   LIG    1       58.699  52.495  43.347  0.00  0.00    +0.277 C 
HETATM   16  O   LIG    1       57.921  51.594  44.137  0.00  0.00    -0.495 OA
ENDBRANCH   1  16
TORSDOF 3

ENDMDL
MODEL 7
REMARK VINA RESULT:      -4.9     25.566     26.471



ROOT
HETATM    1  C   LIG    1       62.423  47.696  46.029  0.00  0.00    +0.120 A 
HETATM    2  C   LIG    1       62.165  47.933  44.687  0.00  0.00    +0.047 A 
HETATM    3  C   LIG    1       61.404  49.023  44.311  0.00  0.00    +0.027 A 
HETATM    4  C   LIG    1       60.897  49.881  45.277  0.00  0.00    +0.036 A 
HETATM    5  C   LIG    1       61.154  49.643  46.621  0.00  0.00    +0.027 A 
HETATM    6  C   LIG    1       61.911  48.550  46.995  0.00  0.00    +0.047 A 
ENDROOT
BRANCH   4   7
HETATM    7  N   LIG    1       60.124  50.987  44.896  0.00  0.00    -0.278 N 
HETATM    8  C   LIG    1       60.608  52.245  44.565  0.00  0.00    +0.093 C 
HETATM    9  C   LIG    1       59.568  53.015  44.261  0.00  0.00    +0.085 C 
HETATM   10  N   LIG    1       58.418  52.253  44.397  0.00  0.00    -0.322 N 
HETATM   11  H   LIG    1       57.511  52.557  44.239  0.00  0.00    +0.148 HD
HETATM   12  C   LIG    1       58.782  51.013  44.781  0.00  0.00    +0.220 C 
BRANCH  12  13
HETATM   13  S   LIG    1       57.722  49.702  45.081  0.00  0.00    -0.137 S 
HETATM   14  H   LIG    1       56.942  49.491  44.582  0.00  0.00    +0.105 HD
ENDBRANCH  12  13
ENDBRANCH   4   7
BRANCH   1  16
HETATM   15  C   LIG    1       63.423  46.758  47.799  0.00  0.00    +0.277 C 
HETATM   16  O   LIG    1       63.171  46.624  46.399  0.00  0.00    -0.495 OA
ENDBRANCH   1  16
TORSDOF 3

ENDMDL
MODEL 8
REMARK VINA RESULT:      -4.9     25.720     26.762



ROOT
HETATM    1  C   LIG    1       60.595  51.516  44.431  0.00  0.00    +0.120 A 
HETATM    2  C   LIG    1       61.956  51.461  44.691  0.00  0.00    +0.047 A 
HETATM    3  C   LIG    1       62.585  50.238  44.828  0.00  0.00    +0.027 A 
HETATM    4  C   LIG    1       61.854  49.064  44.705  0.00  0.00    +0.036 A 
HETATM    5  C   LIG    1       60.490  49.121  44.446  0.00  0.00    +0.027 A 
HETATM    6  C   LIG    1       59.863  50.344  44.315  0.00  0.00    +0.047 A 
ENDROOT
BRANCH   4   7
HETATM    7  N   LIG    1       62.491  47.823  44.844  0.00  0.00    -0.278 N 
HETATM    8  C   LIG    1       63.004  47.050  43.813  0.00  0.00    +0.093 C 
HETATM    9  C   LIG    1       63.527  45.951  44.348  0.00  0.00    +0.085 C 
HETATM   10  N   LIG    1       63.349  46.019  45.721  0.00  0.00    -0.322 N 
HETATM   11  H   LIG    1       63.634  45.353  46.366  0.00  0.00    +0.148 HD
HETATM   12  C   LIG    1       62.718  47.176  46.004  0.00  0.00    +0.220 C 
BRANCH  12  13
HETATM   13  S   LIG    1       62.274  47.723  47.564  0.00  0.00    -0.137 S 
HETATM   14  H   LIG    1       62.409  48.598  47.907  0.00  0.00    +0.105 HD
ENDBRANCH  12  13
ENDBRANCH   4   7
BRANCH   1  16
HETATM   15  C   LIG    1       58.768  52.484  43.573  0.00  0.00    +0.277 C 
HETATM   16  O   LIG    1       59.977  52.719  44.297  0.00  0.00    -0.495 OA
ENDBRANCH   1  16
TORSDOF 3

ENDMDL
MODEL 9
REMARK VINA RESULT:      -4.8     28.522     29.504



ROOT
HETATM    1  C   LIG    1       51.264  51.230  34.429  0.00  0.00    +0.120 A 
HETATM    2  C   LIG    1       52.487  51.482  33.824  0.00  0.00    +0.047 A 
HETATM    3  C   LIG    1       53.515  52.047  34.553  0.00  0.00    +0.027 A 
HETATM    4  C   LIG    1       53.325  52.363  35.891  0.00  0.00    +0.036 A 
HETATM    5  C   LIG    1       52.100  52.112  36.496  0.00  0.00    +0.027 A 
HETATM    6  C   LIG    1       51.071  51.551  35.765  0.00  0.00    +0.047 A 
ENDROOT
BRANCH   4   7
HETATM    7  N   LIG    1       54.368  52.938  36.631  0.00  0.00    -0.278 N 
HETATM    8  C   LIG    1       55.135  54.028  36.248  0.00  0.00    +0.093 C 
HETATM    9  C   LIG    1       56.015  54.269  37.215  0.00  0.00    +0.085 C 
HETATM   10  N   LIG    1       55.813  53.333  38.218  0.00  0.00    -0.322 N 
HETATM   11  H   LIG    1       56.313  53.269  39.046  0.00  0.00    +0.148 HD
HETATM   12  C   LIG    1       54.796  52.532  37.843  0.00  0.00    +0.220 C 
BRANCH  12  13
HETATM   13  S   LIG    1       54.166  51.220  38.743  0.00  0.00    -0.137 S 
HETATM   14  H   LIG    1       53.466  51.269  39.383  0.00  0.00    +0.105 HD
ENDBRANCH  12  13
ENDBRANCH   4   7
BRANCH   1  16
HETATM   15  C   LIG    1       49.043  51.290  34.156  0.00  0.00    +0.277 C 
HETATM   16  O   LIG    1       50.253  50.674  33.712  0.00  0.00    -0.495 OA
ENDBRANCH   1  16
TORSDOF 3

ENDMDL
