MODEL 1
REMARK VINA RESULT:      -5.7      0.000      0.000



ROOT
HETATM    1  C   LIG    1       45.948  30.297  52.756  0.00  0.00    +0.057 A 
HETATM    2  C   LIG    1       46.395  30.029  51.470  0.00  0.00    +0.046 A 
HETATM    3  C   LIG    1       45.699  29.145  50.667  0.00  0.00    +0.063 A 
HETATM    4 CL   LIG    1       46.258  28.809  49.058  0.00  0.00    -0.082 Cl
HETATM    5  C   LIG    1       44.556  28.527  51.146  0.00  0.00    +0.079 A 
HETATM    6 CL   LIG    1       43.683  27.417  50.136  0.00  0.00    -0.080 Cl
HETATM    7  C   LIG    1       44.107  28.792  52.429  0.00  0.00    +0.081 A 
HETATM    8 CL   LIG    1       42.675  28.015  53.026  0.00  0.00    -0.080 Cl
HETATM    9  C   LIG    1       44.805  29.673  53.237  0.00  0.00    +0.082 A 
HETATM   10 CL   LIG    1       44.244  30.005  54.846  0.00  0.00    -0.080 Cl
ENDROOT
BRANCH   1  16
HETATM   11  C   LIG    1       47.706  30.890  54.356  0.00  0.00    +0.220 C 
HETATM   12  N   LIG    1       48.104  32.017  54.979  0.00  0.00    -0.322 N 
HETATM   13  H   LIG    1       48.843  32.093  55.603  0.00  0.00    +0.148 HD
HETATM   14  C   LIG    1       47.272  33.048  54.573  0.00  0.00    +0.085 C 
HETATM   15  C   LIG    1       46.386  32.548  53.717  0.00  0.00    +0.093 C 
HETATM   16  N   LIG    1       46.654  31.194  53.571  0.00  0.00    -0.276 N 
BRANCH  11  17
HETATM   17  S   LIG    1       48.417  29.342  54.529  0.00  0.00    -0.137 S 
HETATM   18  H   LIG    1       49.260  29.074  54.181  0.00  0.00    +0.105 HD
ENDBRANCH  11  17
ENDBRANCH   1  16
TORSDOF 2

ENDMDL
MODEL 2
REMARK VINA RESULT:      -5.3     24.626     26.046



ROOT
HETATM    1  C   LIG    1       61.554  49.299  47.150  0.00  0.00    +0.057 A 
HETATM    2  C   LIG    1       60.192  49.138  46.937  0.00  0.00    +0.046 A 
HETATM    3  C   LIG    1       59.544  49.910  45.990  0.00  0.00    +0.063 A 
HETATM    4 CL   LIG    1       57.841  49.708  45.723  0.00  0.00    -0.082 Cl
HETATM    5  C   LIG    1       60.255  50.844  45.255  0.00  0.00    +0.079 A 
HETATM    6 CL   LIG    1       59.439  51.813  44.067  0.00  0.00    -0.080 Cl
HETATM    7  C   LIG    1       61.613  51.008  45.466  0.00  0.00    +0.081 A 
HETATM    8 CL   LIG    1       62.499  52.182  44.544  0.00  0.00    -0.080 Cl
HETATM    9  C   LIG    1       62.263  50.241  46.416  0.00  0.00    +0.082 A 
HETATM   10 CL   LIG    1       63.966  50.446  46.681  0.00  0.00    -0.080 Cl
ENDROOT
BRANCH   1  16
HETATM   11  C   LIG    1       62.913  47.393  47.869  0.00  0.00    +0.220 C 
HETATM   12  N   LIG    1       63.388  46.934  49.044  0.00  0.00    -0.322 N 
HETATM   13  H   LIG    1       63.931  46.140  49.169  0.00  0.00    +0.148 HD
HETATM   14  C   LIG    1       62.962  47.795  50.044  0.00  0.00    +0.085 C 
HETATM   15  C   LIG    1       62.243  48.758  49.476  0.00  0.00    +0.093 C 
HETATM   16  N   LIG    1       62.210  48.517  48.110  0.00  0.00    -0.276 N 
BRANCH  11  17
HETATM   17  S   LIG    1       63.165  46.675  46.335  0.00  0.00    -0.137 S 
HETATM   18  H   LIG    1       63.836  46.919  45.708  0.00  0.00    +0.105 HD
ENDBRANCH  11  17
ENDBRANCH   1  16
TORSDOF 2

ENDMDL
MODEL 3
REMARK VINA RESULT:      -5.1      1.649      3.122



ROOT
HETATM    1  C   LIG    1       45.942  29.513  53.274  0.00  0.00    +0.057 A 
HETATM    2  C   LIG    1       44.658  29.045  53.519  0.00  0.00    +0.046 A 
HETATM    3  C   LIG    1       43.890  28.560  52.478  0.00  0.00    +0.063 A 
HETATM    4 CL   LIG    1       42.284  27.975  52.783  0.00  0.00    -0.082 Cl
HETATM    5  C   LIG    1       44.400  28.541  51.191  0.00  0.00    +0.079 A 
HETATM    6 CL   LIG    1       43.432  27.931  49.884  0.00  0.00    -0.080 Cl
HETATM    7  C   LIG    1       45.680  29.007  50.943  0.00  0.00    +0.081 A 
HETATM    8 CL   LIG    1       46.316  28.983  49.328  0.00  0.00    -0.080 Cl
HETATM    9  C   LIG    1       46.450  29.498  51.982  0.00  0.00    +0.082 A 
HETATM   10 CL   LIG    1       48.055  30.084  51.673  0.00  0.00    -0.080 Cl
ENDROOT
BRANCH   1  16
HETATM   11  C   LIG    1       46.731  31.274  54.783  0.00  0.00    +0.220 C 
HETATM   12  N   LIG    1       47.609  31.349  55.803  0.00  0.00    -0.322 N 
HETATM   13  H   LIG    1       47.816  32.144  56.319  0.00  0.00    +0.148 HD
HETATM   14  C   LIG    1       48.164  30.092  55.985  0.00  0.00    +0.085 C 
HETATM   15  C   LIG    1       47.627  29.273  55.086  0.00  0.00    +0.093 C 
HETATM   16  N   LIG    1       46.722  30.005  54.330  0.00  0.00    -0.276 N 
BRANCH  11  17
HETATM   17  S   LIG    1       45.788  32.566  54.173  0.00  0.00    -0.137 S 
HETATM   18  H   LIG    1       44.952  32.484  53.728  0.00  0.00    +0.105 HD
ENDBRANCH  11  17
ENDBRANCH   1  16
TORSDOF 2

ENDMDL
MODEL 4
REMARK VINA RESULT:      -4.9     29.828     31.427



ROOT
HETATM    1  C   LIG    1       38.237  55.972  68.236  0.00  0.00    +0.057 A 
HETATM    2  C   LIG    1       38.068  54.660  67.813  0.00  0.00    +0.046 A 
HETATM    3  C   LIG    1       36.819  54.071  67.874  0.00  0.00    +0.063 A 
HETATM    4 CL   LIG    1       36.606  52.431  67.346  0.00  0.00    -0.082 Cl
HETATM    5  C   LIG    1       35.737  54.788  68.357  0.00  0.00    +0.079 A 
HETATM    6 CL   LIG    1       34.169  54.046  68.432  0.00  0.00    -0.080 Cl
HETATM    7  C   LIG    1       35.903  56.096  68.779  0.00  0.00    +0.081 A 
HETATM    8 CL   LIG    1       34.545  56.992  69.385  0.00  0.00    -0.080 Cl
HETATM    9  C   LIG    1       37.152  56.688  68.724  0.00  0.00    +0.082 A 
HETATM   10 CL   LIG    1       37.362  58.327  69.255  0.00  0.00    -0.080 Cl
ENDROOT
BRANCH   1  16
HETATM   11  C   LIG    1       40.416  56.595  69.166  0.00  0.00    +0.220 C 
HETATM   12  N   LIG    1       41.500  57.261  68.721  0.00  0.00    -0.322 N 
HETATM   13  H   LIG    1       42.312  57.429  69.225  0.00  0.00    +0.148 HD
HETATM   14  C   LIG    1       41.251  57.666  67.419  0.00  0.00    +0.085 C 
HETATM   15  C   LIG    1       40.034  57.247  67.086  0.00  0.00    +0.093 C 
HETATM   16  N   LIG    1       39.503  56.569  68.175  0.00  0.00    -0.276 N 
BRANCH  11  17
HETATM   17  S   LIG    1       40.233  55.896  70.718  0.00  0.00    -0.137 S 
HETATM   18  H   LIG    1       39.599  55.230  70.959  0.00  0.00    +0.105 HD
ENDBRANCH  11  17
ENDBRANCH   1  16
TORSDOF 2

ENDMDL
MODEL 5
REMARK VINA RESULT:      -4.9     25.177     25.741



ROOT
HETATM    1  C   LIG    1       61.118  48.997  46.514  0.00  0.00    +0.057 A 
HETATM    2  C   LIG    1       61.273  49.101  47.890  0.00  0.00    +0.046 A 
HETATM    3  C   LIG    1       62.145  48.258  48.553  0.00  0.00    +0.063 A 
HETATM    4 CL   LIG    1       62.339  48.388  50.273  0.00  0.00    -0.082 Cl
HETATM    5  C   LIG    1       62.864  47.309  47.845  0.00  0.00    +0.079 A 
HETATM    6 CL   LIG    1       63.959  46.251  48.680  0.00  0.00    -0.080 Cl
HETATM    7  C   LIG    1       62.712  47.202  46.473  0.00  0.00    +0.081 A 
HETATM    8 CL   LIG    1       63.614  46.011  45.589  0.00  0.00    -0.080 Cl
HETATM    9  C   LIG    1       61.836  48.041  45.807  0.00  0.00    +0.082 A 
HETATM   10 CL   LIG    1       61.644  47.907  44.087  0.00  0.00    -0.080 Cl
ENDROOT
BRANCH   1  16
HETATM   11  C   LIG    1       60.561  51.007  45.230  0.00  0.00    +0.220 C 
HETATM   12  N   LIG    1       59.438  51.535  44.703  0.00  0.00    -0.322 N 
HETATM   13  H   LIG    1       59.379  52.364  44.203  0.00  0.00    +0.148 HD
HETATM   14  C   LIG    1       58.384  50.686  45.001  0.00  0.00    +0.085 C 
HETATM   15  C   LIG    1       58.867  49.661  45.697  0.00  0.00    +0.093 C 
HETATM   16  N   LIG    1       60.234  49.851  45.842  0.00  0.00    -0.276 N 
BRANCH  11  17
HETATM   17  S   LIG    1       62.131  51.683  45.133  0.00  0.00    -0.137 S 
HETATM   18  H   LIG    1       62.858  51.489  45.713  0.00  0.00    +0.105 HD
ENDBRANCH  11  17
ENDBRANCH   1  16
TORSDOF 2

ENDMDL
MODEL 6
REMARK VINA RESULT:      -4.9      4.218      5.288



ROOT
HETATM    1  C   LIG    1       48.548  28.735  50.832  0.00  0.00    +0.057 A 
HETATM    2  C   LIG    1       47.364  28.487  50.152  0.00  0.00    +0.046 A 
HETATM    3  C   LIG    1       46.209  29.160  50.508  0.00  0.00    +0.063 A 
HETATM    4 CL   LIG    1       44.727  28.850  49.658  0.00  0.00    -0.082 Cl
HETATM    5  C   LIG    1       46.235  30.081  51.541  0.00  0.00    +0.079 A 
HETATM    6 CL   LIG    1       44.784  30.926  51.986  0.00  0.00    -0.080 Cl
HETATM    7  C   LIG    1       47.415  30.331  52.222  0.00  0.00    +0.081 A 
HETATM    8 CL   LIG    1       47.443  31.485  53.517  0.00  0.00    -0.080 Cl
HETATM    9  C   LIG    1       48.571  29.655  51.871  0.00  0.00    +0.082 A 
HETATM   10 CL   LIG    1       50.051  29.967  52.724  0.00  0.00    -0.080 Cl
ENDROOT
BRANCH   1  16
HETATM   11  C   LIG    1       50.513  28.342  49.423  0.00  0.00    +0.220 C 
HETATM   12  N   LIG    1       51.533  27.461  49.413  0.00  0.00    -0.322 N 
HETATM   13  H   LIG    1       52.258  27.436  48.769  0.00  0.00    +0.148 HD
HETATM   14  C   LIG    1       51.364  26.597  50.484  0.00  0.00    +0.085 C 
HETATM   15  C   LIG    1       50.257  26.955  51.128  0.00  0.00    +0.093 C 
HETATM   16  N   LIG    1       49.719  28.053  50.472  0.00  0.00    -0.276 N 
BRANCH  11  17
HETATM   17  S   LIG    1       50.272  29.612  48.300  0.00  0.00    -0.137 S 
HETATM   18  H   LIG    1       50.437  29.568  47.365  0.00  0.00    +0.105 HD
ENDBRANCH  11  17
ENDBRANCH   1  16
TORSDOF 2

ENDMDL
MODEL 7
REMARK VINA RESULT:      -4.8      3.428      5.008



ROOT
HETATM    1  C   LIG    1       48.240  29.603  51.092  0.00  0.00    +0.057 A 
HETATM    2  C   LIG    1       48.744  30.101  52.285  0.00  0.00    +0.046 A 
HETATM    3  C   LIG    1       47.886  30.389  53.331  0.00  0.00    +0.063 A 
HETATM    4 CL   LIG    1       48.516  31.012  54.824  0.00  0.00    -0.082 Cl
HETATM    5  C   LIG    1       46.525  30.180  53.187  0.00  0.00    +0.079 A 
HETATM    6 CL   LIG    1       45.449  30.543  54.501  0.00  0.00    -0.080 Cl
HETATM    7  C   LIG    1       46.019  29.684  51.997  0.00  0.00    +0.081 A 
HETATM    8 CL   LIG    1       44.312  29.425  51.821  0.00  0.00    -0.080 Cl
HETATM    9  C   LIG    1       46.874  29.400  50.948  0.00  0.00    +0.082 A 
HETATM   10 CL   LIG    1       46.241  28.778  49.456  0.00  0.00    -0.080 Cl
ENDROOT
BRANCH   1  16
HETATM   11  C   LIG    1       49.930  28.246  49.951  0.00  0.00    +0.220 C 
HETATM   12  N   LIG    1       50.602  28.321  48.785  0.00  0.00    -0.322 N 
HETATM   13  H   LIG    1       51.259  27.683  48.463  0.00  0.00    +0.148 HD
HETATM   14  C   LIG    1       50.191  29.469  48.126  0.00  0.00    +0.085 C 
HETATM   15  C   LIG    1       49.284  30.075  48.886  0.00  0.00    +0.093 C 
HETATM   16  N   LIG    1       49.110  29.312  50.032  0.00  0.00    -0.276 N 
BRANCH  11  17
HETATM   17  S   LIG    1       50.088  27.008  51.123  0.00  0.00    -0.137 S 
HETATM   18  H   LIG    1       50.906  26.655  51.455  0.00  0.00    +0.105 HD
ENDBRANCH  11  17
ENDBRANCH   1  16
TORSDOF 2

ENDMDL
MODEL 8
REMARK VINA RESULT:      -4.8     20.889     21.415



ROOT
HETATM    1  C   LIG    1       28.755  41.382  46.895  0.00  0.00    +0.057 A 
HETATM    2  C   LIG    1       27.638  40.876  46.244  0.00  0.00    +0.046 A 
HETATM    3  C   LIG    1       27.766  39.790  45.398  0.00  0.00    +0.063 A 
HETATM    4 CL   LIG    1       26.370  39.156  44.582  0.00  0.00    -0.082 Cl
HETATM    5  C   LIG    1       29.007  39.208  45.200  0.00  0.00    +0.079 A 
HETATM    6 CL   LIG    1       29.165  37.844  44.137  0.00  0.00    -0.080 Cl
HETATM    7  C   LIG    1       30.122  39.711  45.848  0.00  0.00    +0.081 A 
HETATM    8 CL   LIG    1       31.676  38.979  45.597  0.00  0.00    -0.080 Cl
HETATM    9  C   LIG    1       29.999  40.801  46.692  0.00  0.00    +0.082 A 
HETATM   10 CL   LIG    1       31.397  41.433  47.504  0.00  0.00    -0.080 Cl
ENDROOT
BRANCH   1  16
HETATM   11  C   LIG    1       28.667  43.780  47.389  0.00  0.00    +0.220 C 
HETATM   12  N   LIG    1       28.507  44.532  48.496  0.00  0.00    -0.322 N 
HETATM   13  H   LIG    1       28.492  45.502  48.529  0.00  0.00    +0.148 HD
HETATM   14  C   LIG    1       28.367  43.678  49.578  0.00  0.00    +0.085 C 
HETATM   15  C   LIG    1       28.442  42.430  49.128  0.00  0.00    +0.093 C 
HETATM   16  N   LIG    1       28.625  42.483  47.753  0.00  0.00    -0.276 N 
BRANCH  11  17
HETATM   17  S   LIG    1       28.881  44.370  45.796  0.00  0.00    -0.137 S 
HETATM   18  H   LIG    1       28.703  43.890  44.995  0.00  0.00    +0.105 HD
ENDBRANCH  11  17
ENDBRANCH   1  16
TORSDOF 2

ENDMDL
MODEL 9
REMARK VINA RESULT:      -4.8      2.341      3.070



ROOT
HETATM    1  C   LIG    1       48.545  30.853  53.475  0.00  0.00    +0.057 A 
HETATM    2  C   LIG    1       49.003  29.875  52.603  0.00  0.00    +0.046 A 
HETATM    3  C   LIG    1       48.180  29.407  51.595  0.00  0.00    +0.063 A 
HETATM    4 CL   LIG    1       48.752  28.183  50.505  0.00  0.00    -0.082 Cl
HETATM    5  C   LIG    1       46.899  29.915  51.456  0.00  0.00    +0.079 A 
HETATM    6 CL   LIG    1       45.867  29.325  50.190  0.00  0.00    -0.080 Cl
HETATM    7  C   LIG    1       46.439  30.890  52.324  0.00  0.00    +0.081 A 
HETATM    8 CL   LIG    1       44.832  31.522  52.147  0.00  0.00    -0.080 Cl
HETATM    9  C   LIG    1       47.259  31.357  53.337  0.00  0.00    +0.082 A 
HETATM   10 CL   LIG    1       46.683  32.579  54.426  0.00  0.00    -0.080 Cl
ENDROOT
BRANCH   1  16
HETATM   11  C   LIG    1       49.432  30.857  55.758  0.00  0.00    +0.220 C 
HETATM   12  N   LIG    1       50.354  31.572  56.434  0.00  0.00    -0.322 N 
HETATM   13  H   LIG    1       50.602  31.447  57.364  0.00  0.00    +0.148 HD
HETATM   14  C   LIG    1       50.884  32.516  55.569  0.00  0.00    +0.085 C 
HETATM   15  C   LIG    1       50.289  32.370  54.389  0.00  0.00    +0.093 C 
HETATM   16  N   LIG    1       49.379  31.327  54.496  0.00  0.00    -0.276 N 
BRANCH  11  17
HETATM   17  S   LIG    1       48.496  29.571  56.391  0.00  0.00    -0.137 S 
HETATM   18  H   LIG    1       48.321  28.743  55.959  0.00  0.00    +0.105 HD
ENDBRANCH  11  17
ENDBRANCH   1  16
TORSDOF 2

ENDMDL
