MODEL 1
REMARK VINA RESULT:      -5.6      0.000      0.000



ROOT
HETATM    1  C   LIG    1       62.554  51.593  45.355  0.00  0.00    +0.046 C 
HETATM    2  C   LIG    1       61.164  51.493  44.781  0.00  0.00    -0.028 A 
HETATM    3  C   LIG    1       60.504  52.633  44.366  0.00  0.00    +0.005 A 
HETATM    4  C   LIG    1       59.230  52.543  43.837  0.00  0.00    +0.002 A 
HETATM    5  C   LIG    1       58.611  51.311  43.722  0.00  0.00    +0.022 A 
HETATM    6  C   LIG    1       59.265  50.167  44.136  0.00  0.00    +0.063 A 
HETATM    7 CL   LIG    1       58.489  48.621  43.991  0.00  0.00    -0.082 Cl
HETATM    8  C   LIG    1       60.549  50.254  44.662  0.00  0.00    +0.057 A 
ENDROOT
BRANCH   8   9
HETATM    9  N   LIG    1       61.215  49.095  45.082  0.00  0.00    -0.276 N 
HETATM   10  C   LIG    1       62.101  48.345  44.322  0.00  0.00    +0.093 C 
HETATM   11  C   LIG    1       62.520  47.328  45.071  0.00  0.00    +0.085 C 
HETATM   12  N   LIG    1       61.903  47.426  46.308  0.00  0.00    -0.322 N 
HETATM   13  H   LIG    1       62.023  46.819  47.054  0.00  0.00    +0.148 HD
HETATM   14  C   LIG    1       61.114  48.519  46.295  0.00  0.00    +0.220 C 
BRANCH  14  15
HETATM   15  S   LIG    1       60.141  49.071  47.592  0.00  0.00    -0.137 S 
HETATM   16  H   LIG    1       60.163  49.940  47.976  0.00  0.00    +0.105 HD
ENDBRANCH  14  15
ENDBRANCH   8   9
TORSDOF 2

ENDMDL
MODEL 2
REMARK VINA RESULT:      -5.4      1.510      2.354



ROOT
HETATM    1  C   LIG    1       58.628  48.802  44.045  0.00  0.00    +0.046 C 
HETATM    2  C   LIG    1       59.307  50.141  44.173  0.00  0.00    -0.028 A 
HETATM    3  C   LIG    1       58.655  51.289  43.766  0.00  0.00    +0.005 A 
HETATM    4  C   LIG    1       59.276  52.518  43.883  0.00  0.00    +0.002 A 
HETATM    5  C   LIG    1       60.553  52.604  44.407  0.00  0.00    +0.022 A 
HETATM    6  C   LIG    1       61.212  51.461  44.816  0.00  0.00    +0.063 A 
HETATM    7 CL   LIG    1       62.814  51.569  45.474  0.00  0.00    -0.082 Cl
HETATM    8  C   LIG    1       60.587  50.224  44.704  0.00  0.00    +0.057 A 
ENDROOT
BRANCH   8   9
HETATM    9  N   LIG    1       61.252  49.062  45.118  0.00  0.00    -0.276 N 
HETATM   10  C   LIG    1       62.132  48.311  44.354  0.00  0.00    +0.093 C 
HETATM   11  C   LIG    1       62.552  47.292  45.098  0.00  0.00    +0.085 C 
HETATM   12  N   LIG    1       61.940  47.389  46.338  0.00  0.00    -0.322 N 
HETATM   13  H   LIG    1       62.062  46.779  47.083  0.00  0.00    +0.148 HD
HETATM   14  C   LIG    1       61.154  48.484  46.331  0.00  0.00    +0.220 C 
BRANCH  14  15
HETATM   15  S   LIG    1       60.189  49.035  47.633  0.00  0.00    -0.137 S 
HETATM   16  H   LIG    1       59.280  49.308  47.578  0.00  0.00    +0.105 HD
ENDBRANCH  14  15
ENDBRANCH   8   9
TORSDOF 2

ENDMDL
MODEL 3
REMARK VINA RESULT:      -5.0     24.826     26.213



ROOT
HETATM    1  C   LIG    1       47.124  30.049  51.195  0.00  0.00    +0.046 C 
HETATM    2  C   LIG    1       45.870  29.585  51.889  0.00  0.00    -0.028 A 
HETATM    3  C   LIG    1       45.044  28.661  51.279  0.00  0.00    +0.005 A 
HETATM    4  C   LIG    1       43.894  28.233  51.914  0.00  0.00    +0.002 A 
HETATM    5  C   LIG    1       43.564  28.729  53.162  0.00  0.00    +0.022 A 
HETATM    6  C   LIG    1       44.384  29.655  53.778  0.00  0.00    +0.063 A 
HETATM    7 CL   LIG    1       43.970  30.278  55.344  0.00  0.00    -0.082 Cl
HETATM    8  C   LIG    1       45.545  30.082  53.143  0.00  0.00    +0.057 A 
ENDROOT
BRANCH   8   9
HETATM    9  N   LIG    1       46.379  31.020  53.765  0.00  0.00    -0.276 N 
HETATM   10  C   LIG    1       46.298  32.399  53.631  0.00  0.00    +0.093 C 
HETATM   11  C   LIG    1       47.259  32.938  54.376  0.00  0.00    +0.085 C 
HETATM   12  N   LIG    1       47.956  31.907  54.986  0.00  0.00    -0.322 N 
HETATM   13  H   LIG    1       48.710  32.007  55.588  0.00  0.00    +0.148 HD
HETATM   14  C   LIG    1       47.397  30.741  54.604  0.00  0.00    +0.220 C 
BRANCH  14  15
HETATM   15  S   LIG    1       47.900  29.179  55.089  0.00  0.00    -0.137 S 
HETATM   16  H   LIG    1       48.719  28.758  54.852  0.00  0.00    +0.105 HD
ENDBRANCH  14  15
ENDBRANCH   8   9
TORSDOF 2

ENDMDL
MODEL 4
REMARK VINA RESULT:      -4.9      2.060      2.280



ROOT
HETATM    1  C   LIG    1       63.104  51.554  44.750  0.00  0.00    +0.046 C 
HETATM    2  C   LIG    1       61.638  51.303  44.994  0.00  0.00    -0.028 A 
HETATM    3  C   LIG    1       60.690  52.100  44.382  0.00  0.00    +0.005 A 
HETATM    4  C   LIG    1       59.345  51.871  44.603  0.00  0.00    +0.002 A 
HETATM    5  C   LIG    1       58.943  50.845  45.439  0.00  0.00    +0.022 A 
HETATM    6  C   LIG    1       59.886  50.045  46.056  0.00  0.00    +0.063 A 
HETATM    7 CL   LIG    1       59.382  48.758  47.105  0.00  0.00    -0.082 Cl
HETATM    8  C   LIG    1       61.239  50.270  45.830  0.00  0.00    +0.057 A 
ENDROOT
BRANCH   8   9
HETATM    9  N   LIG    1       62.198  49.460  46.453  0.00  0.00    -0.276 N 
HETATM   10  C   LIG    1       62.779  49.690  47.691  0.00  0.00    +0.093 C 
HETATM   11  C   LIG    1       63.634  48.701  47.931  0.00  0.00    +0.085 C 
HETATM   12  N   LIG    1       63.603  47.837  46.848  0.00  0.00    -0.322 N 
HETATM   13  H   LIG    1       64.126  47.026  46.750  0.00  0.00    +0.148 HD
HETATM   14  C   LIG    1       62.712  48.317  45.957  0.00  0.00    +0.220 C 
BRANCH  14  15
HETATM   15  S   LIG    1       62.313  47.606  44.451  0.00  0.00    -0.137 S 
HETATM   16  H   LIG    1       62.562  46.735  44.162  0.00  0.00    +0.105 HD
ENDBRANCH  14  15
ENDBRANCH   8   9
TORSDOF 2

ENDMDL
MODEL 5
REMARK VINA RESULT:      -4.7      2.674      3.678



ROOT
HETATM    1  C   LIG    1       60.725  51.001  44.456  0.00  0.00    +0.046 C 
HETATM    2  C   LIG    1       60.357  50.163  45.653  0.00  0.00    -0.028 A 
HETATM    3  C   LIG    1       59.034  50.039  46.030  0.00  0.00    +0.005 A 
HETATM    4  C   LIG    1       58.695  49.270  47.127  0.00  0.00    +0.002 A 
HETATM    5  C   LIG    1       59.678  48.622  47.852  0.00  0.00    +0.022 A 
HETATM    6  C   LIG    1       61.004  48.743  47.482  0.00  0.00    +0.063 A 
HETATM    7 CL   LIG    1       62.238  47.930  48.392  0.00  0.00    -0.082 Cl
HETATM    8  C   LIG    1       61.347  49.511  46.375  0.00  0.00    +0.057 A 
ENDROOT
BRANCH   8   9
HETATM    9  N   LIG    1       62.690  49.634  45.996  0.00  0.00    -0.276 N 
HETATM   10  C   LIG    1       63.577  50.603  46.442  0.00  0.00    +0.093 C 
HETATM   11  C   LIG    1       64.750  50.383  45.856  0.00  0.00    +0.085 C 
HETATM   12  N   LIG    1       64.616  49.275  45.034  0.00  0.00    -0.322 N 
HETATM   13  H   LIG    1       65.313  48.885  44.483  0.00  0.00    +0.148 HD
HETATM   14  C   LIG    1       63.348  48.828  45.140  0.00  0.00    +0.220 C 
BRANCH  14  15
HETATM   15  S   LIG    1       62.686  47.479  44.319  0.00  0.00    -0.137 S 
HETATM   16  H   LIG    1       62.797  47.277  43.397  0.00  0.00    +0.105 HD
ENDBRANCH  14  15
ENDBRANCH   8   9
TORSDOF 2

ENDMDL
MODEL 6
REMARK VINA RESULT:      -4.6     23.583     24.763



ROOT
HETATM    1  C   LIG    1       48.907  29.605  52.252  0.00  0.00    +0.046 C 
HETATM    2  C   LIG    1       47.560  30.257  52.423  0.00  0.00    -0.028 A 
HETATM    3  C   LIG    1       46.550  30.006  51.514  0.00  0.00    +0.005 A 
HETATM    4  C   LIG    1       45.312  30.602  51.670  0.00  0.00    +0.002 A 
HETATM    5  C   LIG    1       45.081  31.452  52.735  0.00  0.00    +0.022 A 
HETATM    6  C   LIG    1       46.086  31.709  53.648  0.00  0.00    +0.063 A 
HETATM    7 CL   LIG    1       45.795  32.776  54.986  0.00  0.00    -0.082 Cl
HETATM    8  C   LIG    1       47.329  31.106  53.497  0.00  0.00    +0.057 A 
ENDROOT
BRANCH   8   9
HETATM    9  N   LIG    1       48.351  31.363  54.421  0.00  0.00    -0.276 N 
HETATM   10  C   LIG    1       49.276  32.394  54.347  0.00  0.00    +0.093 C 
HETATM   11  C   LIG    1       50.074  32.302  55.406  0.00  0.00    +0.085 C 
HETATM   12  N   LIG    1       49.663  31.213  56.158  0.00  0.00    -0.322 N 
HETATM   13  H   LIG    1       50.064  30.908  56.987  0.00  0.00    +0.148 HD
HETATM   14  C   LIG    1       48.602  30.656  55.540  0.00  0.00    +0.220 C 
BRANCH  14  15
HETATM   15  S   LIG    1       47.733  29.282  56.077  0.00  0.00    -0.137 S 
HETATM   16  H   LIG    1       47.752  28.419  55.679  0.00  0.00    +0.105 HD
ENDBRANCH  14  15
ENDBRANCH   8   9
TORSDOF 2

ENDMDL
MODEL 7
REMARK VINA RESULT:      -4.6      2.517      3.111



ROOT
HETATM    1  C   LIG    1       59.714  48.714  47.237  0.00  0.00    +0.046 C 
HETATM    2  C   LIG    1       59.943  49.839  46.262  0.00  0.00    -0.028 A 
HETATM    3  C   LIG    1       58.867  50.516  45.721  0.00  0.00    +0.005 A 
HETATM    4  C   LIG    1       59.076  51.550  44.827  0.00  0.00    +0.002 A 
HETATM    5  C   LIG    1       60.362  51.910  44.470  0.00  0.00    +0.022 A 
HETATM    6  C   LIG    1       61.444  51.237  45.005  0.00  0.00    +0.063 A 
HETATM    7 CL   LIG    1       63.059  51.688  44.557  0.00  0.00    -0.082 Cl
HETATM    8  C   LIG    1       61.236  50.201  45.910  0.00  0.00    +0.057 A 
ENDROOT
BRANCH   8   9
HETATM    9  N   LIG    1       62.331  49.517  46.456  0.00  0.00    -0.276 N 
HETATM   10  C   LIG    1       62.986  49.839  47.635  0.00  0.00    +0.093 C 
HETATM   11  C   LIG    1       63.965  48.956  47.811  0.00  0.00    +0.085 C 
HETATM   12  N   LIG    1       63.938  48.070  46.746  0.00  0.00    -0.322 N 
HETATM   13  H   LIG    1       64.539  47.320  46.612  0.00  0.00    +0.148 HD
HETATM   14  C   LIG    1       62.925  48.428  45.931  0.00  0.00    +0.220 C 
BRANCH  14  15
HETATM   15  S   LIG    1       62.481  47.642  44.476  0.00  0.00    -0.137 S 
HETATM   16  H   LIG    1       63.079  47.310  43.816  0.00  0.00    +0.105 HD
ENDBRANCH  14  15
ENDBRANCH   8   9
TORSDOF 2

ENDMDL
MODEL 8
REMARK VINA RESULT:      -4.6     32.115     33.318



ROOT
HETATM    1  C   LIG    1       31.782  38.594  44.852  0.00  0.00    +0.046 C 
HETATM    2  C   LIG    1       30.870  39.386  45.752  0.00  0.00    -0.028 A 
HETATM    3  C   LIG    1       31.402  40.206  46.727  0.00  0.00    +0.005 A 
HETATM    4  C   LIG    1       30.566  40.935  47.553  0.00  0.00    +0.002 A 
HETATM    5  C   LIG    1       29.194  40.844  47.407  0.00  0.00    +0.022 A 
HETATM    6  C   LIG    1       28.654  40.024  46.434  0.00  0.00    +0.063 A 
HETATM    7 CL   LIG    1       26.932  39.911  46.250  0.00  0.00    -0.082 Cl
HETATM    8  C   LIG    1       29.493  39.296  45.598  0.00  0.00    +0.057 A 
ENDROOT
BRANCH   8   9
HETATM    9  N   LIG    1       28.949  38.465  44.610  0.00  0.00    -0.276 N 
HETATM   10  C   LIG    1       28.679  37.110  44.743  0.00  0.00    +0.093 C 
HETATM   11  C   LIG    1       28.170  36.681  43.592  0.00  0.00    +0.085 C 
HETATM   12  N   LIG    1       28.114  37.759  42.722  0.00  0.00    -0.322 N 
HETATM   13  H   LIG    1       27.785  37.739  41.809  0.00  0.00    +0.148 HD
HETATM   14  C   LIG    1       28.589  38.842  43.368  0.00  0.00    +0.220 C 
BRANCH  14  15
HETATM   15  S   LIG    1       28.726  40.420  42.718  0.00  0.00    -0.137 S 
HETATM   16  H   LIG    1       28.878  40.637  41.805  0.00  0.00    +0.105 HD
ENDBRANCH  14  15
ENDBRANCH   8   9
TORSDOF 2

ENDMDL
MODEL 9
REMARK VINA RESULT:      -4.3     20.020     20.870



ROOT
HETATM    1  C   LIG    1       52.171  60.235  59.777  0.00  0.00    +0.046 C 
HETATM    2  C   LIG    1       53.499  60.895  60.044  0.00  0.00    -0.028 A 
HETATM    3  C   LIG    1       54.421  60.283  60.870  0.00  0.00    +0.005 A 
HETATM    4  C   LIG    1       55.640  60.886  61.115  0.00  0.00    +0.002 A 
HETATM    5  C   LIG    1       55.941  62.105  60.535  0.00  0.00    +0.022 A 
HETATM    6  C   LIG    1       55.023  62.725  59.709  0.00  0.00    +0.063 A 
HETATM    7 CL   LIG    1       55.400  64.254  58.981  0.00  0.00    -0.082 Cl
HETATM    8  C   LIG    1       53.798  62.116  59.456  0.00  0.00    +0.057 A 
ENDROOT
BRANCH   8   9
HETATM    9  N   LIG    1       52.865  62.741  58.617  0.00  0.00    -0.276 N 
HETATM   10  C   LIG    1       52.793  62.609  57.238  0.00  0.00    +0.093 C 
HETATM   11  C   LIG    1       51.777  63.353  56.810  0.00  0.00    +0.085 C 
HETATM   12  N   LIG    1       51.200  63.962  57.913  0.00  0.00    -0.322 N 
HETATM   13  H   LIG    1       50.438  64.562  57.900  0.00  0.00    +0.148 HD
HETATM   14  C   LIG    1       51.877  63.568  59.010  0.00  0.00    +0.220 C 
BRANCH  14  15
HETATM   15  S   LIG    1       51.548  64.047  60.621  0.00  0.00    -0.137 S 
HETATM   16  H   LIG    1       51.192  63.494  61.306  0.00  0.00    +0.105 HD
ENDBRANCH  14  15
ENDBRANCH   8   9
TORSDOF 2

ENDMDL
