MODEL 1
REMARK VINA RESULT:      -5.0      0.000      0.000



ROOT
HETATM    1  C   LIG    1       62.166  47.755  46.244  0.00  0.00    +0.220 C 
HETATM    2  N   LIG    1       62.575  46.491  46.020  0.00  0.00    -0.322 N 
HETATM    3  H   LIG    1       62.743  45.818  46.699  0.00  0.00    +0.148 HD
HETATM    4  C   LIG    1       62.712  46.319  44.652  0.00  0.00    +0.085 C 
HETATM    5  C   LIG    1       62.389  47.466  44.062  0.00  0.00    +0.093 C 
HETATM    6  N   LIG    1       62.041  48.372  45.053  0.00  0.00    -0.276 N 
ENDROOT
BRANCH   6   7
HETATM    7  C   LIG    1       61.636  49.698  44.850  0.00  0.00    +0.056 A 
HETATM    8  C   LIG    1       60.293  49.994  44.655  0.00  0.00    +0.045 A 
HETATM    9  C   LIG    1       59.897  51.303  44.455  0.00  0.00    +0.043 A 
HETATM   10 CL   LIG    1       58.219  51.673  44.211  0.00  0.00    -0.083 Cl
HETATM   11  C   LIG    1       60.838  52.318  44.450  0.00  0.00    +0.021 A 
HETATM   12  C   LIG    1       62.175  52.027  44.644  0.00  0.00    +0.023 A 
HETATM   13  C   LIG    1       62.577  50.720  44.850  0.00  0.00    +0.062 A 
HETATM   14 CL   LIG    1       64.257  50.356  45.093  0.00  0.00    -0.082 Cl
ENDBRANCH   6   7
BRANCH   1  15
HETATM   15  S   LIG    1       61.854  48.455  47.775  0.00  0.00    -0.137 S 
HETATM   16  H   LIG    1       61.591  47.987  48.559  0.00  0.00    +0.105 HD
ENDBRANCH   1  15
TORSDOF 2

ENDMDL
MODEL 2
REMARK VINA RESULT:      -4.8      1.978      2.527



ROOT
HETATM    1  C   LIG    1       62.613  47.634  47.195  0.00  0.00    +0.220 C 
HETATM    2  N   LIG    1       63.077  47.140  48.361  0.00  0.00    -0.322 N 
HETATM    3  H   LIG    1       63.599  46.330  48.468  0.00  0.00    +0.148 HD
HETATM    4  C   LIG    1       62.679  47.994  49.378  0.00  0.00    +0.085 C 
HETATM    5  C   LIG    1       61.985  48.987  48.830  0.00  0.00    +0.093 C 
HETATM    6  N   LIG    1       61.942  48.772  47.460  0.00  0.00    -0.276 N 
ENDROOT
BRANCH   6   7
HETATM    7  C   LIG    1       61.308  49.592  46.518  0.00  0.00    +0.056 A 
HETATM    8  C   LIG    1       59.967  49.395  46.213  0.00  0.00    +0.045 A 
HETATM    9  C   LIG    1       59.345  50.206  45.283  0.00  0.00    +0.043 A 
HETATM   10 CL   LIG    1       57.669  49.959  44.902  0.00  0.00    -0.083 Cl
HETATM   11  C   LIG    1       60.056  51.215  44.657  0.00  0.00    +0.021 A 
HETATM   12  C   LIG    1       61.390  51.414  44.958  0.00  0.00    +0.023 A 
HETATM   13  C   LIG    1       62.017  50.610  45.891  0.00  0.00    +0.062 A 
HETATM   14 CL   LIG    1       63.693  50.861  46.268  0.00  0.00    -0.082 Cl
ENDBRANCH   6   7
BRANCH   1  15
HETATM   15  S   LIG    1       62.842  46.939  45.648  0.00  0.00    -0.137 S 
HETATM   16  H   LIG    1       63.677  46.810  45.212  0.00  0.00    +0.105 HD
ENDBRANCH   1  15
TORSDOF 2

ENDMDL
MODEL 3
REMARK VINA RESULT:      -4.8      2.292      4.050



ROOT
HETATM    1  C   LIG    1       59.338  49.486  46.126  0.00  0.00    +0.220 C 
HETATM    2  N   LIG    1       58.041  49.767  45.890  0.00  0.00    -0.322 N 
HETATM    3  H   LIG    1       57.319  49.706  46.534  0.00  0.00    +0.148 HD
HETATM    4  C   LIG    1       57.921  50.159  44.566  0.00  0.00    +0.085 C 
HETATM    5  C   LIG    1       59.130  50.114  44.014  0.00  0.00    +0.093 C 
HETATM    6  N   LIG    1       60.027  49.697  44.987  0.00  0.00    -0.276 N 
ENDROOT
BRANCH   6   7
HETATM    7  C   LIG    1       61.406  49.521  44.813  0.00  0.00    +0.056 A 
HETATM    8  C   LIG    1       61.918  48.259  44.544  0.00  0.00    +0.045 A 
HETATM    9  C   LIG    1       63.279  48.090  44.373  0.00  0.00    +0.043 A 
HETATM   10 CL   LIG    1       63.920  46.512  44.037  0.00  0.00    -0.083 Cl
HETATM   11  C   LIG    1       64.131  49.176  44.469  0.00  0.00    +0.021 A 
HETATM   12  C   LIG    1       63.624  50.434  44.737  0.00  0.00    +0.023 A 
HETATM   13  C   LIG    1       62.263  50.612  44.904  0.00  0.00    +0.062 A 
HETATM   14 CL   LIG    1       61.627  52.192  45.240  0.00  0.00    -0.082 Cl
ENDBRANCH   6   7
BRANCH   1  15
HETATM   15  S   LIG    1       59.998  48.959  47.615  0.00  0.00    -0.137 S 
HETATM   16  H   LIG    1       60.872  48.612  47.746  0.00  0.00    +0.105 HD
ENDBRANCH   1  15
TORSDOF 2

ENDMDL
MODEL 4
REMARK VINA RESULT:      -4.5     36.058     37.250



ROOT
HETATM    1  C   LIG    1       40.987  20.002  53.761  0.00  0.00    +0.220 C 
HETATM    2  N   LIG    1       40.360  20.171  52.580  0.00  0.00    -0.322 N 
HETATM    3  H   LIG    1       40.556  19.694  51.758  0.00  0.00    +0.148 HD
HETATM    4  C   LIG    1       39.387  21.144  52.744  0.00  0.00    +0.085 C 
HETATM    5  C   LIG    1       39.429  21.554  54.009  0.00  0.00    +0.093 C 
HETATM    6  N   LIG    1       40.426  20.839  54.656  0.00  0.00    -0.276 N 
ENDROOT
BRANCH   6   7
HETATM    7  C   LIG    1       40.791  20.971  56.002  0.00  0.00    +0.056 A 
HETATM    8  C   LIG    1       41.744  21.909  56.377  0.00  0.00    +0.045 A 
HETATM    9  C   LIG    1       42.101  22.035  57.706  0.00  0.00    +0.043 A 
HETATM   10 CL   LIG    1       43.292  23.207  58.176  0.00  0.00    -0.083 Cl
HETATM   11  C   LIG    1       41.509  21.229  58.663  0.00  0.00    +0.021 A 
HETATM   12  C   LIG    1       40.560  20.294  58.293  0.00  0.00    +0.023 A 
HETATM   13  C   LIG    1       40.195  20.166  56.965  0.00  0.00    +0.062 A 
HETATM   14 CL   LIG    1       39.003  18.992  56.502  0.00  0.00    -0.082 Cl
ENDBRANCH   6   7
BRANCH   1  15
HETATM   15  S   LIG    1       42.266  18.908  54.073  0.00  0.00    -0.137 S 
HETATM   16  H   LIG    1       42.605  18.259  53.468  0.00  0.00    +0.105 HD
ENDBRANCH   1  15
TORSDOF 2

ENDMDL
MODEL 5
REMARK VINA RESULT:      -4.4     12.983     14.927



ROOT
HETATM    1  C   LIG    1       56.167  61.027  34.974  0.00  0.00    +0.220 C 
HETATM    2  N   LIG    1       55.490  62.188  35.067  0.00  0.00    -0.322 N 
HETATM    3  H   LIG    1       55.041  62.645  34.338  0.00  0.00    +0.148 HD
HETATM    4  C   LIG    1       55.545  62.615  36.384  0.00  0.00    +0.085 C 
HETATM    5  C   LIG    1       56.246  61.720  37.074  0.00  0.00    +0.093 C 
HETATM    6  N   LIG    1       56.637  60.718  36.199  0.00  0.00    -0.276 N 
ENDROOT
BRANCH   6   7
HETATM    7  C   LIG    1       57.394  59.586  36.530  0.00  0.00    +0.056 A 
HETATM    8  C   LIG    1       56.761  58.422  36.944  0.00  0.00    +0.045 A 
HETATM    9  C   LIG    1       57.511  57.307  37.269  0.00  0.00    +0.043 A 
HETATM   10 CL   LIG    1       56.720  55.852  37.787  0.00  0.00    -0.083 Cl
HETATM   11  C   LIG    1       58.892  57.351  37.182  0.00  0.00    +0.021 A 
HETATM   12  C   LIG    1       59.525  58.509  36.770  0.00  0.00    +0.023 A 
HETATM   13  C   LIG    1       58.780  59.625  36.438  0.00  0.00    +0.062 A 
HETATM   14 CL   LIG    1       59.577  61.079  35.921  0.00  0.00    -0.082 Cl
ENDBRANCH   6   7
BRANCH   1  15
HETATM   15  S   LIG    1       56.387  60.101  33.552  0.00  0.00    -0.137 S 
HETATM   16  H   LIG    1       57.151  59.576  33.340  0.00  0.00    +0.105 HD
ENDBRANCH   1  15
TORSDOF 2

ENDMDL
MODEL 6
REMARK VINA RESULT:      -4.4     32.800     34.030



ROOT
HETATM    1  C   LIG    1       28.013  42.160  46.851  0.00  0.00    +0.220 C 
HETATM    2  N   LIG    1       27.260  42.642  47.859  0.00  0.00    -0.322 N 
HETATM    3  H   LIG    1       26.775  43.482  47.856  0.00  0.00    +0.148 HD
HETATM    4  C   LIG    1       27.298  41.728  48.900  0.00  0.00    +0.085 C 
HETATM    5  C   LIG    1       28.065  40.710  48.522  0.00  0.00    +0.093 C 
HETATM    6  N   LIG    1       28.515  40.970  47.236  0.00  0.00    -0.276 N 
ENDROOT
BRANCH   6   7
HETATM    7  C   LIG    1       29.350  40.142  46.473  0.00  0.00    +0.056 A 
HETATM    8  C   LIG    1       28.800  39.192  45.623  0.00  0.00    +0.045 A 
HETATM    9  C   LIG    1       29.626  38.378  44.873  0.00  0.00    +0.043 A 
HETATM   10 CL   LIG    1       28.939  37.189  43.810  0.00  0.00    -0.083 Cl
HETATM   11  C   LIG    1       31.001  38.509  44.967  0.00  0.00    +0.021 A 
HETATM   12  C   LIG    1       31.551  39.454  45.812  0.00  0.00    +0.023 A 
HETATM   13  C   LIG    1       30.730  40.276  46.562  0.00  0.00    +0.062 A 
HETATM   14 CL   LIG    1       31.423  41.461  47.623  0.00  0.00    -0.082 Cl
ENDBRANCH   6   7
BRANCH   1  15
HETATM   15  S   LIG    1       28.282  42.922  45.342  0.00  0.00    -0.137 S 
HETATM   16  H   LIG    1       28.602  42.500  44.554  0.00  0.00    +0.105 HD
ENDBRANCH   1  15
TORSDOF 2

ENDMDL
MODEL 7
REMARK VINA RESULT:      -4.4     30.181     31.394



ROOT
HETATM    1  C   LIG    1       38.553  68.239  48.808  0.00  0.00    +0.220 C 
HETATM    2  N   LIG    1       39.437  69.019  48.156  0.00  0.00    -0.322 N 
HETATM    3  H   LIG    1       39.796  68.854  47.270  0.00  0.00    +0.148 HD
HETATM    4  C   LIG    1       39.742  70.098  48.970  0.00  0.00    +0.085 C 
HETATM    5  C   LIG    1       39.050  69.968  50.097  0.00  0.00    +0.093 C 
HETATM    6  N   LIG    1       38.297  68.807  50.004  0.00  0.00    -0.276 N 
ENDROOT
BRANCH   6   7
HETATM    7  C   LIG    1       37.428  68.308  50.983  0.00  0.00    +0.056 A 
HETATM    8  C   LIG    1       37.929  67.578  52.053  0.00  0.00    +0.045 A 
HETATM    9  C   LIG    1       37.068  67.089  53.017  0.00  0.00    +0.043 A 
HETATM   10 CL   LIG    1       37.694  66.176  54.354  0.00  0.00    -0.083 Cl
HETATM   11  C   LIG    1       35.708  67.326  52.917  0.00  0.00    +0.021 A 
HETATM   12  C   LIG    1       35.206  68.052  51.854  0.00  0.00    +0.023 A 
HETATM   13  C   LIG    1       36.062  68.550  50.889  0.00  0.00    +0.062 A 
HETATM   14 CL   LIG    1       35.430  69.461  49.554  0.00  0.00    -0.082 Cl
ENDBRANCH   6   7
BRANCH   1  15
HETATM   15  S   LIG    1       37.868  66.785  48.220  0.00  0.00    -0.137 S 
HETATM   16  H   LIG    1       37.046  66.401  48.503  0.00  0.00    +0.105 HD
ENDBRANCH   1  15
TORSDOF 2

ENDMDL
MODEL 8
REMARK VINA RESULT:      -4.3     32.738     33.888



ROOT
HETATM    1  C   LIG    1       27.954  38.663  44.545  0.00  0.00    +0.220 C 
HETATM    2  N   LIG    1       27.487  38.440  43.301  0.00  0.00    -0.322 N 
HETATM    3  H   LIG    1       26.855  37.750  43.045  0.00  0.00    +0.148 HD
HETATM    4  C   LIG    1       28.067  39.370  42.451  0.00  0.00    +0.085 C 
HETATM    5  C   LIG    1       28.871  40.141  43.177  0.00  0.00    +0.093 C 
HETATM    6  N   LIG    1       28.804  39.708  44.493  0.00  0.00    -0.276 N 
ENDROOT
BRANCH   6   7
HETATM    7  C   LIG    1       29.502  40.257  45.576  0.00  0.00    +0.056 A 
HETATM    8  C   LIG    1       28.933  41.278  46.326  0.00  0.00    +0.045 A 
HETATM    9  C   LIG    1       29.625  41.817  47.394  0.00  0.00    +0.043 A 
HETATM   10 CL   LIG    1       28.914  43.093  48.331  0.00  0.00    -0.083 Cl
HETATM   11  C   LIG    1       30.883  41.340  47.717  0.00  0.00    +0.021 A 
HETATM   12  C   LIG    1       31.452  40.323  46.973  0.00  0.00    +0.023 A 
HETATM   13  C   LIG    1       30.763  39.776  45.906  0.00  0.00    +0.062 A 
HETATM   14 CL   LIG    1       31.480  38.500  44.972  0.00  0.00    -0.082 Cl
ENDBRANCH   6   7
BRANCH   1  15
HETATM   15  S   LIG    1       27.536  37.778  45.949  0.00  0.00    -0.137 S 
HETATM   16  H   LIG    1       26.811  37.968  46.533  0.00  0.00    +0.105 HD
ENDBRANCH   1  15
TORSDOF 2

ENDMDL
MODEL 9
REMARK VINA RESULT:      -4.3     12.181     14.090



ROOT
HETATM    1  C   LIG    1       55.785  59.048  35.487  0.00  0.00    +0.220 C 
HETATM    2  N   LIG    1       55.224  60.240  35.771  0.00  0.00    -0.322 N 
HETATM    3  H   LIG    1       54.324  60.516  35.536  0.00  0.00    +0.148 HD
HETATM    4  C   LIG    1       56.156  61.001  36.459  0.00  0.00    +0.085 C 
HETATM    5  C   LIG    1       57.263  60.275  36.586  0.00  0.00    +0.093 C 
HETATM    6  N   LIG    1       57.038  59.046  35.984  0.00  0.00    -0.276 N 
ENDROOT
BRANCH   6   7
HETATM    7  C   LIG    1       57.956  57.991  35.900  0.00  0.00    +0.056 A 
HETATM    8  C   LIG    1       58.883  57.954  34.867  0.00  0.00    +0.045 A 
HETATM    9  C   LIG    1       59.787  56.911  34.789  0.00  0.00    +0.043 A 
HETATM   10 CL   LIG    1       60.946  56.864  33.498  0.00  0.00    -0.083 Cl
HETATM   11  C   LIG    1       59.768  55.905  35.739  0.00  0.00    +0.021 A 
HETATM   12  C   LIG    1       58.847  55.938  36.768  0.00  0.00    +0.023 A 
HETATM   13  C   LIG    1       57.943  56.982  36.856  0.00  0.00    +0.062 A 
HETATM   14 CL   LIG    1       56.786  57.022  38.149  0.00  0.00    -0.082 Cl
ENDBRANCH   6   7
BRANCH   1  15
HETATM   15  S   LIG    1       55.035  57.757  34.649  0.00  0.00    -0.137 S 
HETATM   16  H   LIG    1       55.400  56.890  34.520  0.00  0.00    +0.105 HD
ENDBRANCH   1  15
TORSDOF 2

ENDMDL
